WARNING: physical memory size is smaller than virtual memory size

*** ChampSim Multicore Out-of-Order Simulator ***

Warmup Instructions: 0
Simulation Instructions: 20000
Number of CPUs: 1
Page size: 4096

CPU 0 Bimodal branch predictor
Basic BTB sets: 1024 ways: 8 indirect buffer size: 4096 RAS size: 64
Off-chip DRAM Size: 4 GiB Channels: 1 Width: 64-bit Data Rate: 3200 MT/s
Warmup finished CPU 0 instructions: 0 cycles: 1 cumulative IPC: 0 (Simulation time: 0 hr 0 min 0 sec) 

Warmup complete CPU 0 instructions: 0 cycles: 1 (Simulation time: 0 hr 0 min 0 sec) 

btb_btbDbasic_btb_update_btb ip: ffffb7e24708 type 5 taken? 1
Updating branch ip: ffffb7e24708 with type: 0
btb_btbDbasic_btb_update_btb ip: ffffb7fd03a4 type 3 taken? 0
Updating branch ip: ffffb7fd03a4 with type: 3
btb_btbDbasic_btb_update_btb ip: ffffb7fd03b4 type 2 taken? 1
Updating branch ip: ffffb7fd03b4 with type: 0
btb_btbDbasic_btb_update_btb ip: ffffb7fd03c4 type 1 taken? 1
Updating branch ip: ffffb7fd03c4 with type: 2
btb_btbDbasic_btb_update_btb ip: ffffb7fd0464 type 3 taken? 0
Updating branch ip: ffffb7fd0464 with type: 3
btb_btbDbasic_btb_update_btb ip: ffffb7fd0470 type 3 taken? 0
Updating branch ip: ffffb7fd0470 with type: 3
btb_btbDbasic_btb_update_btb ip: ffffb7fd0490 type 3 taken? 0
Updating branch ip: ffffb7fd0490 with type: 3
btb_btbDbasic_btb_update_btb ip: ffffb7fd04d8 type 3 taken? 0
Updating branch ip: ffffb7fd04d8 with type: 3
btb_btbDbasic_btb_update_btb ip: ffffb7fd04e8 type 3 taken? 1
Updating branch ip: ffffb7fd04e8 with type: 2
btb_btbDbasic_btb_update_btb ip: ffffb7fd0500 type 6 taken? 1
Updating branch ip: ffffb7fd0500 with type: 1
btb_btbDbasic_btb_update_btb ip: ffffb7e24714 type 3 taken? 1
Updating branch ip: ffffb7e24714 with type: 2
btb_btbDbasic_btb_update_btb ip: ffffb7e24740 type 6 taken? 1
Updating branch ip: ffffb7e24740 with type: 1
btb_btbDbasic_btb_update_btb ip: ffffb72e8d14 type 6 taken? 1
Updating branch ip: ffffb72e8d14 with type: 1
btb_btbDbasic_btb_update_btb ip: ffffb330ce0c type 4 taken? 1
Updating branch ip: ffffb330ce0c with type: 2
btb_btbDbasic_btb_update_btb ip: ffffb3380674 type 3 taken? 0
Updating branch ip: ffffb3380674 with type: 3
btb_btbDbasic_btb_update_btb ip: ffffb3380690 type 3 taken? 0
Updating branch ip: ffffb3380690 with type: 3
btb_btbDbasic_btb_update_btb ip: ffffb33806a0 type 1 taken? 1
Updating branch ip: ffffb33806a0 with type: 2
btb_btbDbasic_btb_update_btb ip: ffffb33806dc type 3 taken? 0
Updating branch ip: ffffb33806dc with type: 3
btb_btbDbasic_btb_update_btb ip: ffffb33806e8 type 3 taken? 0
Updating branch ip: ffffb33806e8 with type: 3
btb_btbDbasic_btb_update_btb ip: ffffb3380700 type 6 taken? 1
Updating branch ip: ffffb3380700 with type: 1
btb_btbDbasic_btb_update_btb ip: ffffb330ce10 type 4 taken? 1
Updating branch ip: ffffb330ce10 with type: 2
btb_btbDbasic_btb_update_btb ip: ffffb72e8ce8 type 3 taken? 0
Updating branch ip: ffffb72e8ce8 with type: 3
btb_btbDbasic_btb_update_btb ip: ffffb72e8cf4 type 5 taken? 1
Updating branch ip: ffffb72e8cf4 with type: 0
btb_btbDbasic_btb_update_btb ip: ffffb7e24700 type 3 taken? 0
Updating branch ip: ffffb7e24700 with type: 3
btb_btbDbasic_btb_update_btb ip: ffffb7e24708 type 5 taken? 1
Updating branch ip: ffffb7e24708 with type: 0
btb_btbDbasic_btb_update_btb ip: ffffb7fd03a4 type 3 taken? 0
Updating branch ip: ffffb7fd03a4 with type: 3
btb_btbDbasic_btb_update_btb ip: ffffb7fd03b4 type 2 taken? 1
Updating branch ip: ffffb7fd03b4 with type: 0
btb_btbDbasic_btb_update_btb ip: ffffb7fd03c4 type 1 taken? 1
Updating branch ip: ffffb7fd03c4 with type: 2
btb_btbDbasic_btb_update_btb ip: ffffb7fd0464 type 3 taken? 0
Updating branch ip: ffffb7fd0464 with type: 3
btb_btbDbasic_btb_update_btb ip: ffffb7fd0470 type 3 taken? 0
Updating branch ip: ffffb7fd0470 with type: 3
btb_btbDbasic_btb_update_btb ip: ffffb7fd0490 type 3 taken? 0
Updating branch ip: ffffb7fd0490 with type: 3
btb_btbDbasic_btb_update_btb ip: ffffb7fd04d8 type 3 taken? 0
Updating branch ip: ffffb7fd04d8 with type: 3
btb_btbDbasic_btb_update_btb ip: ffffb7fd04e8 type 3 taken? 1
Updating branch ip: ffffb7fd04e8 with type: 2
btb_btbDbasic_btb_update_btb ip: ffffb7fd0500 type 6 taken? 1
Updating branch ip: ffffb7fd0500 with type: 1
btb_btbDbasic_btb_update_btb ip: ffffb7e24714 type 3 taken? 1
Updating branch ip: ffffb7e24714 with type: 2
btb_btbDbasic_btb_update_btb ip: ffffb7e24740 type 6 taken? 1
Updating branch ip: ffffb7e24740 with type: 1
btb_btbDbasic_btb_update_btb ip: ffffb72e8d14 type 6 taken? 1
Updating branch ip: ffffb72e8d14 with type: 1
btb_btbDbasic_btb_update_btb ip: ffffb330ce30 type 3 taken? 0
Updating branch ip: ffffb330ce30 with type: 3
btb_btbDbasic_btb_update_btb ip: ffffb330ce40 type 4 taken? 1
Updating branch ip: ffffb330ce40 with type: 2
btb_btbDbasic_btb_update_btb ip: ffffb30a96e8 type 4 taken? 1
Updating branch ip: ffffb30a96e8 with type: 2
btb_btbDbasic_btb_update_btb ip: ffffb72e8ce8 type 3 taken? 0
Updating branch ip: ffffb72e8ce8 with type: 3
btb_btbDbasic_btb_update_btb ip: ffffb72e8cf4 type 5 taken? 1
Updating branch ip: ffffb72e8cf4 with type: 0
btb_btbDbasic_btb_update_btb ip: ffffb7e24700 type 3 taken? 0
Updating branch ip: ffffb7e24700 with type: 3
btb_btbDbasic_btb_update_btb ip: ffffb7e24708 type 5 taken? 1
Updating branch ip: ffffb7e24708 with type: 0
btb_btbDbasic_btb_update_btb ip: ffffb7fd03a4 type 3 taken? 0
Updating branch ip: ffffb7fd03a4 with type: 3
btb_btbDbasic_btb_update_btb ip: ffffb7fd03b4 type 2 taken? 1
Updating branch ip: ffffb7fd03b4 with type: 0
btb_btbDbasic_btb_update_btb ip: ffffb7fd03c4 type 1 taken? 1
Updating branch ip: ffffb7fd03c4 with type: 2
btb_btbDbasic_btb_update_btb ip: ffffb7fd0464 type 3 taken? 0
Updating branch ip: ffffb7fd0464 with type: 3
btb_btbDbasic_btb_update_btb ip: ffffb7fd0470 type 3 taken? 0
Updating branch ip: ffffb7fd0470 with type: 3
btb_btbDbasic_btb_update_btb ip: ffffb7fd0490 type 3 taken? 0
Updating branch ip: ffffb7fd0490 with type: 3
btb_btbDbasic_btb_update_btb ip: ffffb7fd04d8 type 3 taken? 0
Updating branch ip: ffffb7fd04d8 with type: 3
btb_btbDbasic_btb_update_btb ip: ffffb7fd04e8 type 3 taken? 1
Updating branch ip: ffffb7fd04e8 with type: 2
btb_btbDbasic_btb_update_btb ip: ffffb7fd0500 type 6 taken? 1
Updating branch ip: ffffb7fd0500 with type: 1
btb_btbDbasic_btb_update_btb ip: ffffb7e24714 type 3 taken? 1
Updating branch ip: ffffb7e24714 with type: 2
btb_btbDbasic_btb_update_btb ip: ffffb7e24740 type 6 taken? 1
Updating branch ip: ffffb7e24740 with type: 1
btb_btbDbasic_btb_update_btb ip: ffffb72e8d14 type 6 taken? 1
Updating branch ip: ffffb72e8d14 with type: 1
btb_btbDbasic_btb_update_btb ip: ffffb30a9714 type 3 taken? 0
Updating branch ip: ffffb30a9714 with type: 3
btb_btbDbasic_btb_update_btb ip: ffffb30a9724 type 3 taken? 0
Updating branch ip: ffffb30a9724 with type: 3
btb_btbDbasic_btb_update_btb ip: ffffb30a9738 type 3 taken? 0
Updating branch ip: ffffb30a9738 with type: 3
btb_btbDbasic_btb_update_btb ip: ffffb30a9740 type 3 taken? 0
Updating branch ip: ffffb30a9740 with type: 3
btb_btbDbasic_btb_update_btb ip: ffffb30a9754 type 3 taken? 0
Updating branch ip: ffffb30a9754 with type: 3
btb_btbDbasic_btb_update_btb ip: ffffb30a9760 type 3 taken? 0
Updating branch ip: ffffb30a9760 with type: 3
btb_btbDbasic_btb_update_btb ip: ffffb30a9774 type 3 taken? 0
Updating branch ip: ffffb30a9774 with type: 3
btb_btbDbasic_btb_update_btb ip: ffffb30a9784 type 3 taken? 1
Updating branch ip: ffffb30a9784 with type: 2
btb_btbDbasic_btb_update_btb ip: ffffb30a9948 type 6 taken? 1
Updating branch ip: ffffb30a9948 with type: 1
btb_btbDbasic_btb_update_btb ip: ffffb330ce64 type 3 taken? 0
Updating branch ip: ffffb330ce64 with type: 3
btb_btbDbasic_btb_update_btb ip: ffffb330ce78 type 3 taken? 0
Updating branch ip: ffffb330ce78 with type: 3
btb_btbDbasic_btb_update_btb ip: ffffb330cea8 type 3 taken? 0
Updating branch ip: ffffb330cea8 with type: 3
btb_btbDbasic_btb_update_btb ip: ffffb330ceb8 type 3 taken? 0
Updating branch ip: ffffb330ceb8 with type: 3
btb_btbDbasic_btb_update_btb ip: ffffb330cec8 type 1 taken? 1
Updating branch ip: ffffb330cec8 with type: 2
btb_btbDbasic_btb_update_btb ip: ffffb330cf50 type 3 taken? 0
Updating branch ip: ffffb330cf50 with type: 3
btb_btbDbasic_btb_update_btb ip: ffffb330cf54 type 3 taken? 1
Updating branch ip: ffffb330cf54 with type: 2
btb_btbDbasic_btb_update_btb ip: ffffb330cbfc type 3 taken? 0
Updating branch ip: ffffb330cbfc with type: 3
btb_btbDbasic_btb_update_btb ip: ffffb330cc10 type 3 taken? 0
Updating branch ip: ffffb330cc10 with type: 3
btb_btbDbasic_btb_update_btb ip: ffffb330cc48 type 3 taken? 0
Updating branch ip: ffffb330cc48 with type: 3
btb_btbDbasic_btb_update_btb ip: ffffb330cca4 type 3 taken? 0
Updating branch ip: ffffb330cca4 with type: 3
btb_btbDbasic_btb_update_btb ip: ffffb330ccb8 type 3 taken? 0
Updating branch ip: ffffb330ccb8 with type: 3
btb_btbDbasic_btb_update_btb ip: ffffb330cce4 type 3 taken? 0
Updating branch ip: ffffb330cce4 with type: 3
btb_btbDbasic_btb_update_btb ip: ffffb330cd00 type 3 taken? 0
Updating branch ip: ffffb330cd00 with type: 3
btb_btbDbasic_btb_update_btb ip: ffffb330cd04 type 3 taken? 0
Updating branch ip: ffffb330cd04 with type: 3
btb_btbDbasic_btb_update_btb ip: ffffb330cd10 type 3 taken? 1
Updating branch ip: ffffb330cd10 with type: 2
btb_btbDbasic_btb_update_btb ip: ffffb330cda0 type 3 taken? 0
Updating branch ip: ffffb330cda0 with type: 3
btb_btbDbasic_btb_update_btb ip: ffffb330cda8 type 3 taken? 0
Updating branch ip: ffffb330cda8 with type: 3
btb_btbDbasic_btb_update_btb ip: ffffb330cdb4 type 3 taken? 0
Updating branch ip: ffffb330cdb4 with type: 3
btb_btbDbasic_btb_update_btb ip: ffffb330cdbc type 4 taken? 1
Updating branch ip: ffffb330cdbc with type: 2
btb_btbDbasic_btb_update_btb ip: ffffb32dd34c type 4 taken? 1
Updating branch ip: ffffb32dd34c with type: 2
btb_btbDbasic_btb_update_btb ip: ffffb72e8ce8 type 3 taken? 0
Updating branch ip: ffffb72e8ce8 with type: 3
btb_btbDbasic_btb_update_btb ip: ffffb72e8cf4 type 5 taken? 1
Updating branch ip: ffffb72e8cf4 with type: 0
btb_btbDbasic_btb_update_btb ip: ffffb7e24700 type 3 taken? 0
Updating branch ip: ffffb7e24700 with type: 3
btb_btbDbasic_btb_update_btb ip: ffffb7e24708 type 5 taken? 1
Updating branch ip: ffffb7e24708 with type: 0
btb_btbDbasic_btb_update_btb ip: ffffb7fd03a4 type 3 taken? 0
Updating branch ip: ffffb7fd03a4 with type: 3
btb_btbDbasic_btb_update_btb ip: ffffb7fd03b4 type 2 taken? 1
Updating branch ip: ffffb7fd03b4 with type: 0
btb_btbDbasic_btb_update_btb ip: ffffb7fd03c4 type 1 taken? 1
Updating branch ip: ffffb7fd03c4 with type: 2
btb_btbDbasic_btb_update_btb ip: ffffb7fd0464 type 3 taken? 0
Updating branch ip: ffffb7fd0464 with type: 3
btb_btbDbasic_btb_update_btb ip: ffffb7fd0470 type 3 taken? 0
Updating branch ip: ffffb7fd0470 with type: 3
btb_btbDbasic_btb_update_btb ip: ffffb7fd0490 type 3 taken? 0
Updating branch ip: ffffb7fd0490 with type: 3
btb_btbDbasic_btb_update_btb ip: ffffb7fd04d8 type 3 taken? 0
Updating branch ip: ffffb7fd04d8 with type: 3
btb_btbDbasic_btb_update_btb ip: ffffb7fd04e8 type 3 taken? 1
Updating branch ip: ffffb7fd04e8 with type: 2
btb_btbDbasic_btb_update_btb ip: ffffb7fd0500 type 6 taken? 1
Updating branch ip: ffffb7fd0500 with type: 1
btb_btbDbasic_btb_update_btb ip: ffffb7e24714 type 3 taken? 1
Updating branch ip: ffffb7e24714 with type: 2
btb_btbDbasic_btb_update_btb ip: ffffb7e24740 type 6 taken? 1
Updating branch ip: ffffb7e24740 with type: 1
btb_btbDbasic_btb_update_btb ip: ffffb72e8d14 type 6 taken? 1
Updating branch ip: ffffb72e8d14 with type: 1
btb_btbDbasic_btb_update_btb ip: ffffb32dd378 type 3 taken? 0
Updating branch ip: ffffb32dd378 with type: 3
btb_btbDbasic_btb_update_btb ip: ffffb32dd380 type 3 taken? 0
Updating branch ip: ffffb32dd380 with type: 3
btb_btbDbasic_btb_update_btb ip: ffffb32dd394 type 3 taken? 0
Updating branch ip: ffffb32dd394 with type: 3
btb_btbDbasic_btb_update_btb ip: ffffb32dd3a0 type 3 taken? 0
Updating branch ip: ffffb32dd3a0 with type: 3
btb_btbDbasic_btb_update_btb ip: ffffb32dd3b4 type 3 taken? 0
Updating branch ip: ffffb32dd3b4 with type: 3
btb_btbDbasic_btb_update_btb ip: ffffb32dd3e0 type 1 taken? 1
Updating branch ip: ffffb32dd3e0 with type: 2
btb_btbDbasic_btb_update_btb ip: ffffb32dd470 type 3 taken? 1
Updating branch ip: ffffb32dd470 with type: 2
btb_btbDbasic_btb_update_btb ip: ffffb32dd570 type 3 taken? 0
Updating branch ip: ffffb32dd570 with type: 3
btb_btbDbasic_btb_update_btb ip: ffffb32dd584 type 3 taken? 1
Updating branch ip: ffffb32dd584 with type: 2
btb_btbDbasic_btb_update_btb ip: ffffb32dd5b0 type 3 taken? 0
Updating branch ip: ffffb32dd5b0 with type: 3
btb_btbDbasic_btb_update_btb ip: ffffb32dd5bc type 3 taken? 0
Updating branch ip: ffffb32dd5bc with type: 3
btb_btbDbasic_btb_update_btb ip: ffffb32dd5d8 type 3 taken? 0
Updating branch ip: ffffb32dd5d8 with type: 3
btb_btbDbasic_btb_update_btb ip: ffffb32dd5dc type 3 taken? 0
Updating branch ip: ffffb32dd5dc with type: 3
btb_btbDbasic_btb_update_btb ip: ffffb32dd5f0 type 3 taken? 1
Updating branch ip: ffffb32dd5f0 with type: 2
btb_btbDbasic_btb_update_btb ip: ffffb32dd61c type 3 taken? 0
Updating branch ip: ffffb32dd61c with type: 3
btb_btbDbasic_btb_update_btb ip: ffffb32dd628 type 3 taken? 0
Updating branch ip: ffffb32dd628 with type: 3
btb_btbDbasic_btb_update_btb ip: ffffb32dd634 type 3 taken? 0
Updating branch ip: ffffb32dd634 with type: 3
btb_btbDbasic_btb_update_btb ip: ffffb32dd648 type 3 taken? 1
Updating branch ip: ffffb32dd648 with type: 2
btb_btbDbasic_btb_update_btb ip: ffffb32dd674 type 3 taken? 0
Updating branch ip: ffffb32dd674 with type: 3
btb_btbDbasic_btb_update_btb ip: ffffb32dd680 type 3 taken? 0
Updating branch ip: ffffb32dd680 with type: 3
btb_btbDbasic_btb_update_btb ip: ffffb32dd694 type 3 taken? 0
Updating branch ip: ffffb32dd694 with type: 3
btb_btbDbasic_btb_update_btb ip: ffffb32dd6ac type 3 taken? 1
Updating branch ip: ffffb32dd6ac with type: 2
btb_btbDbasic_btb_update_btb ip: ffffb32dd6d8 type 3 taken? 0
Updating branch ip: ffffb32dd6d8 with type: 3
btb_btbDbasic_btb_update_btb ip: ffffb32dd6e4 type 3 taken? 0
Updating branch ip: ffffb32dd6e4 with type: 3
btb_btbDbasic_btb_update_btb ip: ffffb32dd6f4 type 3 taken? 0
Updating branch ip: ffffb32dd6f4 with type: 3
btb_btbDbasic_btb_update_btb ip: ffffb32dd704 type 3 taken? 0
Updating branch ip: ffffb32dd704 with type: 3
btb_btbDbasic_btb_update_btb ip: ffffb32dd714 type 3 taken? 0
Updating branch ip: ffffb32dd714 with type: 3
btb_btbDbasic_btb_update_btb ip: ffffb32dd720 type 3 taken? 0
Updating branch ip: ffffb32dd720 with type: 3
btb_btbDbasic_btb_update_btb ip: ffffb32dd730 type 3 taken? 0
Updating branch ip: ffffb32dd730 with type: 3
btb_btbDbasic_btb_update_btb ip: ffffb32dd740 type 3 taken? 0
Updating branch ip: ffffb32dd740 with type: 3
btb_btbDbasic_btb_update_btb ip: ffffb32dd764 type 3 taken? 0
Updating branch ip: ffffb32dd764 with type: 3
btb_btbDbasic_btb_update_btb ip: ffffb32dd778 type 3 taken? 0
Updating branch ip: ffffb32dd778 with type: 3
btb_btbDbasic_btb_update_btb ip: ffffb32dd77c type 3 taken? 0
Updating branch ip: ffffb32dd77c with type: 3
btb_btbDbasic_btb_update_btb ip: ffffb32dd790 type 3 taken? 1
Updating branch ip: ffffb32dd790 with type: 2
btb_btbDbasic_btb_update_btb ip: ffffb32dd7bc type 3 taken? 0
Updating branch ip: ffffb32dd7bc with type: 3
btb_btbDbasic_btb_update_btb ip: ffffb32dd7c8 type 3 taken? 0
Updating branch ip: ffffb32dd7c8 with type: 3
btb_btbDbasic_btb_update_btb ip: ffffb32dd7ec type 3 taken? 1
Updating branch ip: ffffb32dd7ec with type: 2
btb_btbDbasic_btb_update_btb ip: ffffb32dd804 type 3 taken? 0
Updating branch ip: ffffb32dd804 with type: 3
btb_btbDbasic_btb_update_btb ip: ffffb32dd810 type 3 taken? 0
Updating branch ip: ffffb32dd810 with type: 3
btb_btbDbasic_btb_update_btb ip: ffffb32dd820 type 3 taken? 0
Updating branch ip: ffffb32dd820 with type: 3
btb_btbDbasic_btb_update_btb ip: ffffb32dd830 type 3 taken? 0
Updating branch ip: ffffb32dd830 with type: 3
btb_btbDbasic_btb_update_btb ip: ffffb32dd840 type 3 taken? 0
Updating branch ip: ffffb32dd840 with type: 3
btb_btbDbasic_btb_update_btb ip: ffffb32dd850 type 3 taken? 0
Updating branch ip: ffffb32dd850 with type: 3
btb_btbDbasic_btb_update_btb ip: ffffb32dd860 type 3 taken? 0
Updating branch ip: ffffb32dd860 with type: 3
btb_btbDbasic_btb_update_btb ip: ffffb32dd874 type 3 taken? 1
Updating branch ip: ffffb32dd874 with type: 2
btb_btbDbasic_btb_update_btb ip: ffffb32dd8a0 type 3 taken? 0
Updating branch ip: ffffb32dd8a0 with type: 3
btb_btbDbasic_btb_update_btb ip: ffffb32dd8ac type 3 taken? 0
Updating branch ip: ffffb32dd8ac with type: 3
btb_btbDbasic_btb_update_btb ip: ffffb32dd8b8 type 3 taken? 0
Updating branch ip: ffffb32dd8b8 with type: 3
btb_btbDbasic_btb_update_btb ip: ffffb32dd8cc type 3 taken? 0
Updating branch ip: ffffb32dd8cc with type: 3
btb_btbDbasic_btb_update_btb ip: ffffb32dd8d8 type 3 taken? 0
Updating branch ip: ffffb32dd8d8 with type: 3
btb_btbDbasic_btb_update_btb ip: ffffb32dd8e8 type 3 taken? 0
Updating branch ip: ffffb32dd8e8 with type: 3
btb_btbDbasic_btb_update_btb ip: ffffb32dd8f8 type 3 taken? 0
Updating branch ip: ffffb32dd8f8 with type: 3
btb_btbDbasic_btb_update_btb ip: ffffb32dd938 type 4 taken? 1
Updating branch ip: ffffb32dd938 with type: 2
btb_btbDbasic_btb_update_btb ip: ffffb3202988 type 6 taken? 1
Updating branch ip: ffffb3202988 with type: 1
btb_btbDbasic_btb_update_btb ip: ffffa3926f38 type 3 taken? 1
Updating branch ip: ffffa3926f38 with type: 2
btb_btbDbasic_btb_update_btb ip: ffffa3926fbc type 1 taken? 1
Updating branch ip: ffffa3926fbc with type: 2
btb_btbDbasic_btb_update_btb ip: ffffa3926fe0 type 4 taken? 1
Updating branch ip: ffffa3926fe0 with type: 2
btb_btbDbasic_btb_update_btb ip: ffffa3925edc type 2 taken? 1
Updating branch ip: ffffa3925edc with type: 0
btb_btbDbasic_btb_update_btb ip: ffffb7e17a4c type 1 taken? 1
Updating branch ip: ffffb7e17a4c with type: 2
btb_btbDbasic_btb_update_btb ip: ffffb7e17c44 type 3 taken? 1
Updating branch ip: ffffb7e17c44 with type: 2
btb_btbDbasic_btb_update_btb ip: ffffb7e17c9c type 4 taken? 1
Updating branch ip: ffffb7e17c9c with type: 2
btb_btbDbasic_btb_update_btb ip: ffffb7e23fc0 type 3 taken? 0
Updating branch ip: ffffb7e23fc0 with type: 3
btb_btbDbasic_btb_update_btb ip: ffffb7e23fe0 type 3 taken? 0
Updating branch ip: ffffb7e23fe0 with type: 3
btb_btbDbasic_btb_update_btb ip: ffffb7e23fe8 type 3 taken? 0
Updating branch ip: ffffb7e23fe8 with type: 3
btb_btbDbasic_btb_update_btb ip: ffffb7e23fec type 3 taken? 1
Updating branch ip: ffffb7e23fec with type: 2
btb_btbDbasic_btb_update_btb ip: ffffb7e23ffc type 3 taken? 0
Updating branch ip: ffffb7e23ffc with type: 3
btb_btbDbasic_btb_update_btb ip: ffffb7e2400c type 3 taken? 0
Updating branch ip: ffffb7e2400c with type: 3
btb_btbDbasic_btb_update_btb ip: ffffb7e24014 type 6 taken? 1
Updating branch ip: ffffb7e24014 with type: 1
btb_btbDbasic_btb_update_btb ip: ffff000008081c00 type 1 taken? 1
Updating branch ip: ffff000008081c00 with type: 2
btb_btbDbasic_btb_update_btb ip: ffff000008082890 type 3 taken? 1
Updating branch ip: ffff000008082890 with type: 2
btb_btbDbasic_btb_update_btb ip: ffff0000080828d0 type 3 taken? 1
Updating branch ip: ffff0000080828d0 with type: 2
btb_btbDbasic_btb_update_btb ip: ffff000008082edc type 3 taken? 0
Updating branch ip: ffff000008082edc with type: 3
btb_btbDbasic_btb_update_btb ip: ffff000008082ee4 type 3 taken? 0
Updating branch ip: ffff000008082ee4 with type: 3
btb_btbDbasic_btb_update_btb ip: ffff000008082eec type 5 taken? 1
Updating branch ip: ffff000008082eec with type: 0
btb_btbDbasic_btb_update_btb ip: ffff000008222ef8 type 3 taken? 1
Updating branch ip: ffff000008222ef8 with type: 2
btb_btbDbasic_btb_update_btb ip: ffff000008222fe0 type 4 taken? 1
Updating branch ip: ffff000008222fe0 with type: 2
btb_btbDbasic_btb_update_btb ip: ffff000008222b50 type 3 taken? 0
Updating branch ip: ffff000008222b50 with type: 3
btb_btbDbasic_btb_update_btb ip: ffff000008222b70 type 3 taken? 0
Updating branch ip: ffff000008222b70 with type: 3
btb_btbDbasic_btb_update_btb ip: ffff000008222b80 type 4 taken? 1
Updating branch ip: ffff000008222b80 with type: 2
btb_btbDbasic_btb_update_btb ip: ffff0000081fc83c type 4 taken? 1
Updating branch ip: ffff0000081fc83c with type: 2
btb_btbDbasic_btb_update_btb ip: ffff0000081fc7c4 type 3 taken? 0
Updating branch ip: ffff0000081fc7c4 with type: 3
btb_btbDbasic_btb_update_btb ip: ffff0000081fc7d0 type 4 taken? 1
Updating branch ip: ffff0000081fc7d0 with type: 2
btb_btbDbasic_btb_update_btb ip: ffff0000081fc020 type 3 taken? 0
Updating branch ip: ffff0000081fc020 with type: 3
btb_btbDbasic_btb_update_btb ip: ffff0000081fc02c type 3 taken? 0
Updating branch ip: ffff0000081fc02c with type: 3
btb_btbDbasic_btb_update_btb ip: ffff0000081fc038 type 3 taken? 0
Updating branch ip: ffff0000081fc038 with type: 3
btb_btbDbasic_btb_update_btb ip: ffff0000081fc040 type 3 taken? 0
Updating branch ip: ffff0000081fc040 with type: 3
btb_btbDbasic_btb_update_btb ip: ffff0000081fc058 type 3 taken? 0
Updating branch ip: ffff0000081fc058 with type: 3
btb_btbDbasic_btb_update_btb ip: ffff0000081fc060 type 3 taken? 0
Updating branch ip: ffff0000081fc060 with type: 3
btb_btbDbasic_btb_update_btb ip: ffff0000081fc070 type 3 taken? 1
Updating branch ip: ffff0000081fc070 with type: 2
btb_btbDbasic_btb_update_btb ip: ffff0000081fc0b8 type 6 taken? 1
Updating branch ip: ffff0000081fc0b8 with type: 1
btb_btbDbasic_btb_update_btb ip: ffff0000081fc7d4 type 3 taken? 0
Updating branch ip: ffff0000081fc7d4 with type: 3
btb_btbDbasic_btb_update_btb ip: ffff0000081fc7e0 type 6 taken? 1
Updating branch ip: ffff0000081fc7e0 with type: 1
btb_btbDbasic_btb_update_btb ip: ffff0000081fc844 type 6 taken? 1
Updating branch ip: ffff0000081fc844 with type: 1
btb_btbDbasic_btb_update_btb ip: ffff000008222b8c type 3 taken? 0
Updating branch ip: ffff000008222b8c with type: 3
btb_btbDbasic_btb_update_btb ip: ffff000008222ba4 type 3 taken? 1
Updating branch ip: ffff000008222ba4 with type: 2
btb_btbDbasic_btb_update_btb ip: ffff000008222c04 type 3 taken? 1
Updating branch ip: ffff000008222c04 with type: 2
btb_btbDbasic_btb_update_btb ip: ffff000008222d30 type 3 taken? 1
Updating branch ip: ffff000008222d30 with type: 2
btb_btbDbasic_btb_update_btb ip: ffff000008222d70 type 4 taken? 1
Updating branch ip: ffff000008222d70 with type: 2
btb_btbDbasic_btb_update_btb ip: ffff0000089df8c8 type 3 taken? 0
Updating branch ip: ffff0000089df8c8 with type: 3
btb_btbDbasic_btb_update_btb ip: ffff0000089df8d0 type 3 taken? 1
Updating branch ip: ffff0000089df8d0 with type: 2
btb_btbDbasic_btb_update_btb ip: ffff0000089df8ec type 6 taken? 1
Updating branch ip: ffff0000089df8ec with type: 1
btb_btbDbasic_btb_update_btb ip: ffff000008222d7c type 1 taken? 1
Updating branch ip: ffff000008222d7c with type: 2
btb_btbDbasic_btb_update_btb ip: ffff000008222cd4 type 3 taken? 0
Updating branch ip: ffff000008222cd4 with type: 3
btb_btbDbasic_btb_update_btb ip: ffff000008222ce0 type 3 taken? 1
Updating branch ip: ffff000008222ce0 with type: 2
btb_btbDbasic_btb_update_btb ip: ffff000008222ed0 type 4 taken? 1
Updating branch ip: ffff000008222ed0 with type: 2
btb_btbDbasic_btb_update_btb ip: ffff0000089df930 type 6 taken? 1
Updating branch ip: ffff0000089df930 with type: 1
btb_btbDbasic_btb_update_btb ip: ffff000008222ed4 type 1 taken? 1
Updating branch ip: ffff000008222ed4 with type: 2
btb_btbDbasic_btb_update_btb ip: ffff000008222ba8 type 3 taken? 1
Updating branch ip: ffff000008222ba8 with type: 2
btb_btbDbasic_btb_update_btb ip: ffff000008222bd4 type 4 taken? 1
Updating branch ip: ffff000008222bd4 with type: 2
btb_btbDbasic_btb_update_btb ip: ffff0000081e0c7c type 3 taken? 0
Updating branch ip: ffff0000081e0c7c with type: 3
btb_btbDbasic_btb_update_btb ip: ffff0000081e0c84 type 3 taken? 1
Updating branch ip: ffff0000081e0c84 with type: 2
btb_btbDbasic_btb_update_btb ip: ffff0000081e0d18 type 6 taken? 1
Updating branch ip: ffff0000081e0d18 with type: 1
btb_btbDbasic_btb_update_btb ip: ffff000008222bf4 type 6 taken? 1
Updating branch ip: ffff000008222bf4 with type: 1
btb_btbDbasic_btb_update_btb ip: ffff000008222fe8 type 1 taken? 1
Updating branch ip: ffff000008222fe8 with type: 2
btb_btbDbasic_btb_update_btb ip: ffff000008222f38 type 6 taken? 1
Updating branch ip: ffff000008222f38 with type: 1
btb_btbDbasic_btb_update_btb ip: ffff000008082ef0 type 1 taken? 1
Updating branch ip: ffff000008082ef0 with type: 2
btb_btbDbasic_btb_update_btb ip: ffff000008082d48 type 3 taken? 0
Updating branch ip: ffff000008082d48 with type: 3
btb_btbDbasic_btb_update_btb ip: ffff000008082d50 type 3 taken? 0
Updating branch ip: ffff000008082d50 with type: 3
btb_btbDbasic_btb_update_btb ip: ffff000008082d54 type 3 taken? 1
Updating branch ip: ffff000008082d54 with type: 2
btb_btbDbasic_btb_update_btb ip: ffffb7e17cc8 type 3 taken? 0
Updating branch ip: ffffb7e17cc8 with type: 3
btb_btbDbasic_btb_update_btb ip: ffffb7e17cd4 type 4 taken? 1
Updating branch ip: ffffb7e17cd4 with type: 2
btb_btbDbasic_btb_update_btb ip: ffffb7e24078 type 3 taken? 0
Updating branch ip: ffffb7e24078 with type: 3
btb_btbDbasic_btb_update_btb ip: ffffb7e240ac type 3 taken? 0
Updating branch ip: ffffb7e240ac with type: 3
btb_btbDbasic_btb_update_btb ip: ffffb7e240b4 type 3 taken? 0
Updating branch ip: ffffb7e240b4 with type: 3
btb_btbDbasic_btb_update_btb ip: ffffb7e240b8 type 3 taken? 0
Updating branch ip: ffffb7e240b8 with type: 3
btb_btbDbasic_btb_update_btb ip: ffffb7e240c4 type 3 taken? 0
Updating branch ip: ffffb7e240c4 with type: 3
btb_btbDbasic_btb_update_btb ip: ffffb7e240d0 type 3 taken? 0
Updating branch ip: ffffb7e240d0 with type: 3
btb_btbDbasic_btb_update_btb ip: ffffb7e240d8 type 6 taken? 1
Updating branch ip: ffffb7e240d8 with type: 1
btb_btbDbasic_btb_update_btb ip: ffffb7e17cec type 6 taken? 1
Updating branch ip: ffffb7e17cec with type: 1
btb_btbDbasic_btb_update_btb ip: ffffa3926fec type 3 taken? 0
Updating branch ip: ffffa3926fec with type: 3
btb_btbDbasic_btb_update_btb ip: ffffa3926ff0 type 3 taken? 1
Updating branch ip: ffffa3926ff0 with type: 2
btb_btbDbasic_btb_update_btb ip: ffffa3926fb4 type 6 taken? 1
Updating branch ip: ffffa3926fb4 with type: 1
btb_btbDbasic_btb_update_btb ip: ffffb32029ac type 3 taken? 0
Updating branch ip: ffffb32029ac with type: 3
btb_btbDbasic_btb_update_btb ip: ffffb32029c0 type 3 taken? 0
Updating branch ip: ffffb32029c0 with type: 3
btb_btbDbasic_btb_update_btb ip: ffffb32029e0 type 3 taken? 0
Updating branch ip: ffffb32029e0 with type: 3
btb_btbDbasic_btb_update_btb ip: ffffb32029e8 type 6 taken? 1
Updating branch ip: ffffb32029e8 with type: 1
btb_btbDbasic_btb_update_btb ip: ffffb32dd960 type 3 taken? 1
Updating branch ip: ffffb32dd960 with type: 2
btb_btbDbasic_btb_update_btb ip: ffffb32dd9e0 type 3 taken? 0
Updating branch ip: ffffb32dd9e0 with type: 3
btb_btbDbasic_btb_update_btb ip: ffffb32dd9e4 type 3 taken? 0
Updating branch ip: ffffb32dd9e4 with type: 3
btb_btbDbasic_btb_update_btb ip: ffffb32dd9f8 type 3 taken? 1
Updating branch ip: ffffb32dd9f8 with type: 2
btb_btbDbasic_btb_update_btb ip: ffffb32dda24 type 3 taken? 0
Updating branch ip: ffffb32dda24 with type: 3
btb_btbDbasic_btb_update_btb ip: ffffb32dda30 type 3 taken? 0
Updating branch ip: ffffb32dda30 with type: 3
btb_btbDbasic_btb_update_btb ip: ffffb32dda4c type 3 taken? 0
Updating branch ip: ffffb32dda4c with type: 3
btb_btbDbasic_btb_update_btb ip: ffffb32dda58 type 3 taken? 0
Updating branch ip: ffffb32dda58 with type: 3
btb_btbDbasic_btb_update_btb ip: ffffb32dda68 type 3 taken? 0
Updating branch ip: ffffb32dda68 with type: 3
btb_btbDbasic_btb_update_btb ip: ffffb32dda78 type 3 taken? 0
Updating branch ip: ffffb32dda78 with type: 3
btb_btbDbasic_btb_update_btb ip: ffffb32dda9c type 3 taken? 1
Updating branch ip: ffffb32dda9c with type: 2
btb_btbDbasic_btb_update_btb ip: ffffb32ddac8 type 3 taken? 0
Updating branch ip: ffffb32ddac8 with type: 3
btb_btbDbasic_btb_update_btb ip: ffffb32ddad4 type 3 taken? 0
Updating branch ip: ffffb32ddad4 with type: 3
btb_btbDbasic_btb_update_btb ip: ffffb32ddae4 type 3 taken? 0
Updating branch ip: ffffb32ddae4 with type: 3
btb_btbDbasic_btb_update_btb ip: ffffb32ddaf4 type 3 taken? 0
Updating branch ip: ffffb32ddaf4 with type: 3
btb_btbDbasic_btb_update_btb ip: ffffb32ddb04 type 3 taken? 0
Updating branch ip: ffffb32ddb04 with type: 3
btb_btbDbasic_btb_update_btb ip: ffffb32ddb10 type 3 taken? 0
Updating branch ip: ffffb32ddb10 with type: 3
btb_btbDbasic_btb_update_btb ip: ffffb32ddb20 type 3 taken? 0
Updating branch ip: ffffb32ddb20 with type: 3
btb_btbDbasic_btb_update_btb ip: ffffb32ddb30 type 3 taken? 0
Updating branch ip: ffffb32ddb30 with type: 3
btb_btbDbasic_btb_update_btb ip: ffffb32ddb44 type 3 taken? 1
Updating branch ip: ffffb32ddb44 with type: 2
btb_btbDbasic_btb_update_btb ip: ffffb32dde6c type 3 taken? 1
Updating branch ip: ffffb32dde6c with type: 2
btb_btbDbasic_btb_update_btb ip: ffffb32ddf7c type 3 taken? 0
Updating branch ip: ffffb32ddf7c with type: 3
btb_btbDbasic_btb_update_btb ip: ffffb32ddf88 type 3 taken? 0
Updating branch ip: ffffb32ddf88 with type: 3
btb_btbDbasic_btb_update_btb ip: ffffb32ddf98 type 3 taken? 0
Updating branch ip: ffffb32ddf98 with type: 3
btb_btbDbasic_btb_update_btb ip: ffffb32ddfa8 type 3 taken? 0
Updating branch ip: ffffb32ddfa8 with type: 3
btb_btbDbasic_btb_update_btb ip: ffffb32ddfbc type 3 taken? 0
Updating branch ip: ffffb32ddfbc with type: 3
btb_btbDbasic_btb_update_btb ip: ffffb32ddfc8 type 3 taken? 0
Updating branch ip: ffffb32ddfc8 with type: 3
btb_btbDbasic_btb_update_btb ip: ffffb32ddfd8 type 3 taken? 0
Updating branch ip: ffffb32ddfd8 with type: 3
btb_btbDbasic_btb_update_btb ip: ffffb32ddfe8 type 3 taken? 0
Updating branch ip: ffffb32ddfe8 with type: 3
btb_btbDbasic_btb_update_btb ip: ffffb32ddff8 type 3 taken? 0
Updating branch ip: ffffb32ddff8 with type: 3
btb_btbDbasic_btb_update_btb ip: ffffb32de004 type 3 taken? 0
Updating branch ip: ffffb32de004 with type: 3
btb_btbDbasic_btb_update_btb ip: ffffb32de014 type 3 taken? 0
Updating branch ip: ffffb32de014 with type: 3
btb_btbDbasic_btb_update_btb ip: ffffb32de024 type 3 taken? 0
Updating branch ip: ffffb32de024 with type: 3
btb_btbDbasic_btb_update_btb ip: ffffb32de03c type 6 taken? 1
Updating branch ip: ffffb32de03c with type: 1
btb_btbDbasic_btb_update_btb ip: ffffb330cdd4 type 3 taken? 0
Updating branch ip: ffffb330cdd4 with type: 3
btb_btbDbasic_btb_update_btb ip: ffffb330cdf8 type 3 taken? 0
Updating branch ip: ffffb330cdf8 with type: 3
btb_btbDbasic_btb_update_btb ip: ffffb330ce00 type 4 taken? 1
Updating branch ip: ffffb330ce00 with type: 2
btb_btbDbasic_btb_update_btb ip: ffffb72e8ce8 type 3 taken? 0
Updating branch ip: ffffb72e8ce8 with type: 3
btb_btbDbasic_btb_update_btb ip: ffffb72e8cf4 type 5 taken? 1
Updating branch ip: ffffb72e8cf4 with type: 0
btb_btbDbasic_btb_update_btb ip: ffffb7e24700 type 3 taken? 0
Updating branch ip: ffffb7e24700 with type: 3
btb_btbDbasic_btb_update_btb ip: ffffb7e24708 type 5 taken? 1
Updating branch ip: ffffb7e24708 with type: 0
btb_btbDbasic_btb_update_btb ip: ffffb7fd03a4 type 3 taken? 0
Updating branch ip: ffffb7fd03a4 with type: 3
btb_btbDbasic_btb_update_btb ip: ffffb7fd03b4 type 2 taken? 1
Updating branch ip: ffffb7fd03b4 with type: 0
btb_btbDbasic_btb_update_btb ip: ffffb7fd03c4 type 1 taken? 1
Updating branch ip: ffffb7fd03c4 with type: 2
btb_btbDbasic_btb_update_btb ip: ffffb7fd0464 type 3 taken? 0
Updating branch ip: ffffb7fd0464 with type: 3
btb_btbDbasic_btb_update_btb ip: ffffb7fd0470 type 3 taken? 0
Updating branch ip: ffffb7fd0470 with type: 3
btb_btbDbasic_btb_update_btb ip: ffffb7fd0490 type 3 taken? 0
Updating branch ip: ffffb7fd0490 with type: 3
btb_btbDbasic_btb_update_btb ip: ffffb7fd04d8 type 3 taken? 0
Updating branch ip: ffffb7fd04d8 with type: 3
btb_btbDbasic_btb_update_btb ip: ffffb7fd04e8 type 3 taken? 1
Updating branch ip: ffffb7fd04e8 with type: 2
btb_btbDbasic_btb_update_btb ip: ffffb7fd0500 type 6 taken? 1
Updating branch ip: ffffb7fd0500 with type: 1
btb_btbDbasic_btb_update_btb ip: ffffb7e24714 type 3 taken? 1
Updating branch ip: ffffb7e24714 with type: 2
btb_btbDbasic_btb_update_btb ip: ffffb7e24740 type 6 taken? 1
Updating branch ip: ffffb7e24740 with type: 1
btb_btbDbasic_btb_update_btb ip: ffffb72e8d14 type 6 taken? 1
Updating branch ip: ffffb72e8d14 with type: 1
btb_btbDbasic_btb_update_btb ip: ffffb330ce0c type 4 taken? 1
Updating branch ip: ffffb330ce0c with type: 2
btb_btbDbasic_btb_update_btb ip: ffffb3380674 type 3 taken? 1
Updating branch ip: ffffb3380674 with type: 2
btb_btbDbasic_btb_update_btb ip: ffffb33806c0 type 3 taken? 0
Updating branch ip: ffffb33806c0 with type: 3
btb_btbDbasic_btb_update_btb ip: ffffb33806dc type 3 taken? 0
Updating branch ip: ffffb33806dc with type: 3
btb_btbDbasic_btb_update_btb ip: ffffb33806e8 type 3 taken? 0
Updating branch ip: ffffb33806e8 with type: 3
btb_btbDbasic_btb_update_btb ip: ffffb3380700 type 6 taken? 1
Updating branch ip: ffffb3380700 with type: 1
btb_btbDbasic_btb_update_btb ip: ffffb330ce10 type 4 taken? 1
Updating branch ip: ffffb330ce10 with type: 2
btb_btbDbasic_btb_update_btb ip: ffffb72e8ce8 type 3 taken? 0
Updating branch ip: ffffb72e8ce8 with type: 3
btb_btbDbasic_btb_update_btb ip: ffffb72e8cf4 type 5 taken? 1
Updating branch ip: ffffb72e8cf4 with type: 0
btb_btbDbasic_btb_update_btb ip: ffffb7e24700 type 3 taken? 0
Updating branch ip: ffffb7e24700 with type: 3
btb_btbDbasic_btb_update_btb ip: ffffb7e24708 type 5 taken? 1
Updating branch ip: ffffb7e24708 with type: 0
btb_btbDbasic_btb_update_btb ip: ffffb7fd03a4 type 3 taken? 0
Updating branch ip: ffffb7fd03a4 with type: 3
btb_btbDbasic_btb_update_btb ip: ffffb7fd03b4 type 2 taken? 1
Updating branch ip: ffffb7fd03b4 with type: 0
btb_btbDbasic_btb_update_btb ip: ffffb7fd03c4 type 1 taken? 1
Updating branch ip: ffffb7fd03c4 with type: 2
btb_btbDbasic_btb_update_btb ip: ffffb7fd0464 type 3 taken? 0
Updating branch ip: ffffb7fd0464 with type: 3
btb_btbDbasic_btb_update_btb ip: ffffb7fd0470 type 3 taken? 0
Updating branch ip: ffffb7fd0470 with type: 3
btb_btbDbasic_btb_update_btb ip: ffffb7fd0490 type 3 taken? 0
Updating branch ip: ffffb7fd0490 with type: 3
btb_btbDbasic_btb_update_btb ip: ffffb7fd04d8 type 3 taken? 0
Updating branch ip: ffffb7fd04d8 with type: 3
btb_btbDbasic_btb_update_btb ip: ffffb7fd04e8 type 3 taken? 1
Updating branch ip: ffffb7fd04e8 with type: 2
btb_btbDbasic_btb_update_btb ip: ffffb7fd0500 type 6 taken? 1
Updating branch ip: ffffb7fd0500 with type: 1
btb_btbDbasic_btb_update_btb ip: ffffb7e24714 type 3 taken? 1
Updating branch ip: ffffb7e24714 with type: 2
btb_btbDbasic_btb_update_btb ip: ffffb7e24740 type 6 taken? 1
Updating branch ip: ffffb7e24740 with type: 1
btb_btbDbasic_btb_update_btb ip: ffffb72e8d14 type 6 taken? 1
Updating branch ip: ffffb72e8d14 with type: 1
btb_btbDbasic_btb_update_btb ip: ffffb330ce30 type 3 taken? 0
Updating branch ip: ffffb330ce30 with type: 3
btb_btbDbasic_btb_update_btb ip: ffffb330ce40 type 4 taken? 1
Updating branch ip: ffffb330ce40 with type: 2
btb_btbDbasic_btb_update_btb ip: ffffb30a96e8 type 4 taken? 1
Updating branch ip: ffffb30a96e8 with type: 2
btb_btbDbasic_btb_update_btb ip: ffffb72e8ce8 type 3 taken? 0
Updating branch ip: ffffb72e8ce8 with type: 3
btb_btbDbasic_btb_update_btb ip: ffffb72e8cf4 type 5 taken? 1
Updating branch ip: ffffb72e8cf4 with type: 0
btb_btbDbasic_btb_update_btb ip: ffffb7e24700 type 3 taken? 0
Updating branch ip: ffffb7e24700 with type: 3
btb_btbDbasic_btb_update_btb ip: ffffb7e24708 type 5 taken? 1
Updating branch ip: ffffb7e24708 with type: 0
btb_btbDbasic_btb_update_btb ip: ffffb7fd03a4 type 3 taken? 0
Updating branch ip: ffffb7fd03a4 with type: 3
btb_btbDbasic_btb_update_btb ip: ffffb7fd03b4 type 2 taken? 1
Updating branch ip: ffffb7fd03b4 with type: 0
btb_btbDbasic_btb_update_btb ip: ffffb7fd03c4 type 1 taken? 1
Updating branch ip: ffffb7fd03c4 with type: 2
btb_btbDbasic_btb_update_btb ip: ffffb7fd0464 type 3 taken? 0
Updating branch ip: ffffb7fd0464 with type: 3
btb_btbDbasic_btb_update_btb ip: ffffb7fd0470 type 3 taken? 0
Updating branch ip: ffffb7fd0470 with type: 3
btb_btbDbasic_btb_update_btb ip: ffffb7fd0490 type 3 taken? 0
Updating branch ip: ffffb7fd0490 with type: 3
btb_btbDbasic_btb_update_btb ip: ffffb7fd04d8 type 3 taken? 0
Updating branch ip: ffffb7fd04d8 with type: 3
btb_btbDbasic_btb_update_btb ip: ffffb7fd04e8 type 3 taken? 1
Updating branch ip: ffffb7fd04e8 with type: 2
btb_btbDbasic_btb_update_btb ip: ffffb7fd0500 type 6 taken? 1
Updating branch ip: ffffb7fd0500 with type: 1
btb_btbDbasic_btb_update_btb ip: ffffb7e24714 type 3 taken? 1
Updating branch ip: ffffb7e24714 with type: 2
btb_btbDbasic_btb_update_btb ip: ffffb7e24740 type 6 taken? 1
Updating branch ip: ffffb7e24740 with type: 1
btb_btbDbasic_btb_update_btb ip: ffffb72e8d14 type 6 taken? 1
Updating branch ip: ffffb72e8d14 with type: 1
btb_btbDbasic_btb_update_btb ip: ffffb30a9714 type 3 taken? 0
Updating branch ip: ffffb30a9714 with type: 3
btb_btbDbasic_btb_update_btb ip: ffffb30a9724 type 3 taken? 0
Updating branch ip: ffffb30a9724 with type: 3
btb_btbDbasic_btb_update_btb ip: ffffb30a9738 type 3 taken? 0
Updating branch ip: ffffb30a9738 with type: 3
btb_btbDbasic_btb_update_btb ip: ffffb30a9740 type 3 taken? 0
Updating branch ip: ffffb30a9740 with type: 3
btb_btbDbasic_btb_update_btb ip: ffffb30a9754 type 3 taken? 0
Updating branch ip: ffffb30a9754 with type: 3
btb_btbDbasic_btb_update_btb ip: ffffb30a9760 type 3 taken? 0
Updating branch ip: ffffb30a9760 with type: 3
btb_btbDbasic_btb_update_btb ip: ffffb30a9774 type 3 taken? 0
Updating branch ip: ffffb30a9774 with type: 3
btb_btbDbasic_btb_update_btb ip: ffffb30a9784 type 3 taken? 1
Updating branch ip: ffffb30a9784 with type: 2
btb_btbDbasic_btb_update_btb ip: ffffb30a9948 type 6 taken? 1
Updating branch ip: ffffb30a9948 with type: 1
btb_btbDbasic_btb_update_btb ip: ffffb330ce64 type 3 taken? 0
Updating branch ip: ffffb330ce64 with type: 3
btb_btbDbasic_btb_update_btb ip: ffffb330ce78 type 3 taken? 0
Updating branch ip: ffffb330ce78 with type: 3
btb_btbDbasic_btb_update_btb ip: ffffb330cea8 type 3 taken? 0
Updating branch ip: ffffb330cea8 with type: 3
btb_btbDbasic_btb_update_btb ip: ffffb330ceb8 type 3 taken? 0
Updating branch ip: ffffb330ceb8 with type: 3
btb_btbDbasic_btb_update_btb ip: ffffb330cec8 type 1 taken? 1
Updating branch ip: ffffb330cec8 with type: 2
btb_btbDbasic_btb_update_btb ip: ffffb330cf50 type 3 taken? 0
Updating branch ip: ffffb330cf50 with type: 3
btb_btbDbasic_btb_update_btb ip: ffffb330cf54 type 3 taken? 1
Updating branch ip: ffffb330cf54 with type: 2
btb_btbDbasic_btb_update_btb ip: ffffb330cbfc type 3 taken? 0
Updating branch ip: ffffb330cbfc with type: 3
btb_btbDbasic_btb_update_btb ip: ffffb330cc10 type 3 taken? 0
Updating branch ip: ffffb330cc10 with type: 3
btb_btbDbasic_btb_update_btb ip: ffffb330cc48 type 3 taken? 0
Updating branch ip: ffffb330cc48 with type: 3
btb_btbDbasic_btb_update_btb ip: ffffb330cca4 type 3 taken? 0
Updating branch ip: ffffb330cca4 with type: 3
btb_btbDbasic_btb_update_btb ip: ffffb330ccb8 type 3 taken? 0
Updating branch ip: ffffb330ccb8 with type: 3
btb_btbDbasic_btb_update_btb ip: ffffb330cce4 type 3 taken? 0
Updating branch ip: ffffb330cce4 with type: 3
btb_btbDbasic_btb_update_btb ip: ffffb330cd00 type 3 taken? 0
Updating branch ip: ffffb330cd00 with type: 3
btb_btbDbasic_btb_update_btb ip: ffffb330cd04 type 3 taken? 0
Updating branch ip: ffffb330cd04 with type: 3
btb_btbDbasic_btb_update_btb ip: ffffb330cd10 type 3 taken? 1
Updating branch ip: ffffb330cd10 with type: 2
btb_btbDbasic_btb_update_btb ip: ffffb330cda0 type 3 taken? 0
Updating branch ip: ffffb330cda0 with type: 3
btb_btbDbasic_btb_update_btb ip: ffffb330cda8 type 3 taken? 0
Updating branch ip: ffffb330cda8 with type: 3
btb_btbDbasic_btb_update_btb ip: ffffb330cdb4 type 3 taken? 0
Updating branch ip: ffffb330cdb4 with type: 3
btb_btbDbasic_btb_update_btb ip: ffffb330cdbc type 4 taken? 1
Updating branch ip: ffffb330cdbc with type: 2
btb_btbDbasic_btb_update_btb ip: ffffb32dd34c type 4 taken? 1
Updating branch ip: ffffb32dd34c with type: 2
btb_btbDbasic_btb_update_btb ip: ffffb72e8ce8 type 3 taken? 0
Updating branch ip: ffffb72e8ce8 with type: 3
btb_btbDbasic_btb_update_btb ip: ffffb72e8cf4 type 5 taken? 1
Updating branch ip: ffffb72e8cf4 with type: 0
btb_btbDbasic_btb_update_btb ip: ffffb7e24700 type 3 taken? 0
Updating branch ip: ffffb7e24700 with type: 3
btb_btbDbasic_btb_update_btb ip: ffffb7e24708 type 5 taken? 1
Updating branch ip: ffffb7e24708 with type: 0
btb_btbDbasic_btb_update_btb ip: ffffb7fd03a4 type 3 taken? 0
Updating branch ip: ffffb7fd03a4 with type: 3
btb_btbDbasic_btb_update_btb ip: ffffb7fd03b4 type 2 taken? 1
Updating branch ip: ffffb7fd03b4 with type: 0
btb_btbDbasic_btb_update_btb ip: ffffb7fd03c4 type 1 taken? 1
Updating branch ip: ffffb7fd03c4 with type: 2
btb_btbDbasic_btb_update_btb ip: ffffb7fd0464 type 3 taken? 0
Updating branch ip: ffffb7fd0464 with type: 3
btb_btbDbasic_btb_update_btb ip: ffffb7fd0470 type 3 taken? 0
Updating branch ip: ffffb7fd0470 with type: 3
btb_btbDbasic_btb_update_btb ip: ffffb7fd0490 type 3 taken? 0
Updating branch ip: ffffb7fd0490 with type: 3
btb_btbDbasic_btb_update_btb ip: ffffb7fd04d8 type 3 taken? 0
Updating branch ip: ffffb7fd04d8 with type: 3
btb_btbDbasic_btb_update_btb ip: ffffb7fd04e8 type 3 taken? 1
Updating branch ip: ffffb7fd04e8 with type: 2
btb_btbDbasic_btb_update_btb ip: ffffb7fd0500 type 6 taken? 1
Updating branch ip: ffffb7fd0500 with type: 1
btb_btbDbasic_btb_update_btb ip: ffffb7e24714 type 3 taken? 1
Updating branch ip: ffffb7e24714 with type: 2
btb_btbDbasic_btb_update_btb ip: ffffb7e24740 type 6 taken? 1
Updating branch ip: ffffb7e24740 with type: 1
btb_btbDbasic_btb_update_btb ip: ffffb72e8d14 type 6 taken? 1
Updating branch ip: ffffb72e8d14 with type: 1
btb_btbDbasic_btb_update_btb ip: ffffb32dd378 type 3 taken? 0
Updating branch ip: ffffb32dd378 with type: 3
btb_btbDbasic_btb_update_btb ip: ffffb32dd380 type 3 taken? 0
Updating branch ip: ffffb32dd380 with type: 3
btb_btbDbasic_btb_update_btb ip: ffffb32dd394 type 3 taken? 0
Updating branch ip: ffffb32dd394 with type: 3
btb_btbDbasic_btb_update_btb ip: ffffb32dd3a0 type 3 taken? 0
Updating branch ip: ffffb32dd3a0 with type: 3
btb_btbDbasic_btb_update_btb ip: ffffb32dd3b4 type 3 taken? 0
Updating branch ip: ffffb32dd3b4 with type: 3
btb_btbDbasic_btb_update_btb ip: ffffb32dd3e0 type 1 taken? 1
Updating branch ip: ffffb32dd3e0 with type: 2
btb_btbDbasic_btb_update_btb ip: ffffb32dd470 type 3 taken? 1
Updating branch ip: ffffb32dd470 with type: 2
btb_btbDbasic_btb_update_btb ip: ffffb32dd570 type 3 taken? 0
Updating branch ip: ffffb32dd570 with type: 3
btb_btbDbasic_btb_update_btb ip: ffffb32dd584 type 3 taken? 1
Updating branch ip: ffffb32dd584 with type: 2
btb_btbDbasic_btb_update_btb ip: ffffb32dd5b0 type 3 taken? 0
Updating branch ip: ffffb32dd5b0 with type: 3
btb_btbDbasic_btb_update_btb ip: ffffb32dd5bc type 3 taken? 0
Updating branch ip: ffffb32dd5bc with type: 3
btb_btbDbasic_btb_update_btb ip: ffffb32dd5d8 type 3 taken? 0
Updating branch ip: ffffb32dd5d8 with type: 3
btb_btbDbasic_btb_update_btb ip: ffffb32dd5dc type 3 taken? 0
Updating branch ip: ffffb32dd5dc with type: 3
btb_btbDbasic_btb_update_btb ip: ffffb32dd5f0 type 3 taken? 1
Updating branch ip: ffffb32dd5f0 with type: 2
btb_btbDbasic_btb_update_btb ip: ffffb32dd61c type 3 taken? 0
Updating branch ip: ffffb32dd61c with type: 3
btb_btbDbasic_btb_update_btb ip: ffffb32dd628 type 3 taken? 0
Updating branch ip: ffffb32dd628 with type: 3
btb_btbDbasic_btb_update_btb ip: ffffb32dd634 type 3 taken? 0
Updating branch ip: ffffb32dd634 with type: 3
btb_btbDbasic_btb_update_btb ip: ffffb32dd648 type 3 taken? 1
Updating branch ip: ffffb32dd648 with type: 2
btb_btbDbasic_btb_update_btb ip: ffffb32dd674 type 3 taken? 0
Updating branch ip: ffffb32dd674 with type: 3
btb_btbDbasic_btb_update_btb ip: ffffb32dd680 type 3 taken? 0
Updating branch ip: ffffb32dd680 with type: 3
btb_btbDbasic_btb_update_btb ip: ffffb32dd694 type 3 taken? 0
Updating branch ip: ffffb32dd694 with type: 3
btb_btbDbasic_btb_update_btb ip: ffffb32dd6ac type 3 taken? 1
Updating branch ip: ffffb32dd6ac with type: 2
btb_btbDbasic_btb_update_btb ip: ffffb32dd6d8 type 3 taken? 0
Updating branch ip: ffffb32dd6d8 with type: 3
btb_btbDbasic_btb_update_btb ip: ffffb32dd6e4 type 3 taken? 0
Updating branch ip: ffffb32dd6e4 with type: 3
btb_btbDbasic_btb_update_btb ip: ffffb32dd6f4 type 3 taken? 0
Updating branch ip: ffffb32dd6f4 with type: 3
btb_btbDbasic_btb_update_btb ip: ffffb32dd704 type 3 taken? 0
Updating branch ip: ffffb32dd704 with type: 3
btb_btbDbasic_btb_update_btb ip: ffffb32dd714 type 3 taken? 0
Updating branch ip: ffffb32dd714 with type: 3
btb_btbDbasic_btb_update_btb ip: ffffb32dd720 type 3 taken? 0
Updating branch ip: ffffb32dd720 with type: 3
btb_btbDbasic_btb_update_btb ip: ffffb32dd730 type 3 taken? 0
Updating branch ip: ffffb32dd730 with type: 3
btb_btbDbasic_btb_update_btb ip: ffffb32dd740 type 3 taken? 0
Updating branch ip: ffffb32dd740 with type: 3
btb_btbDbasic_btb_update_btb ip: ffffb32dd764 type 3 taken? 0
Updating branch ip: ffffb32dd764 with type: 3
btb_btbDbasic_btb_update_btb ip: ffffb32dd778 type 3 taken? 0
Updating branch ip: ffffb32dd778 with type: 3
btb_btbDbasic_btb_update_btb ip: ffffb32dd77c type 3 taken? 0
Updating branch ip: ffffb32dd77c with type: 3
btb_btbDbasic_btb_update_btb ip: ffffb32dd790 type 3 taken? 1
Updating branch ip: ffffb32dd790 with type: 2
btb_btbDbasic_btb_update_btb ip: ffffb32dd7bc type 3 taken? 0
Updating branch ip: ffffb32dd7bc with type: 3
btb_btbDbasic_btb_update_btb ip: ffffb32dd7c8 type 3 taken? 0
Updating branch ip: ffffb32dd7c8 with type: 3
btb_btbDbasic_btb_update_btb ip: ffffb32dd7ec type 3 taken? 1
Updating branch ip: ffffb32dd7ec with type: 2
btb_btbDbasic_btb_update_btb ip: ffffb32dd804 type 3 taken? 0
Updating branch ip: ffffb32dd804 with type: 3
btb_btbDbasic_btb_update_btb ip: ffffb32dd810 type 3 taken? 0
Updating branch ip: ffffb32dd810 with type: 3
btb_btbDbasic_btb_update_btb ip: ffffb32dd820 type 3 taken? 0
Updating branch ip: ffffb32dd820 with type: 3
btb_btbDbasic_btb_update_btb ip: ffffb32dd830 type 3 taken? 0
Updating branch ip: ffffb32dd830 with type: 3
btb_btbDbasic_btb_update_btb ip: ffffb32dd840 type 3 taken? 0
Updating branch ip: ffffb32dd840 with type: 3
btb_btbDbasic_btb_update_btb ip: ffffb32dd850 type 3 taken? 0
Updating branch ip: ffffb32dd850 with type: 3
btb_btbDbasic_btb_update_btb ip: ffffb32dd860 type 3 taken? 0
Updating branch ip: ffffb32dd860 with type: 3
btb_btbDbasic_btb_update_btb ip: ffffb32dd874 type 3 taken? 1
Updating branch ip: ffffb32dd874 with type: 2
btb_btbDbasic_btb_update_btb ip: ffffb32dd8a0 type 3 taken? 0
Updating branch ip: ffffb32dd8a0 with type: 3
btb_btbDbasic_btb_update_btb ip: ffffb32dd8ac type 3 taken? 0
Updating branch ip: ffffb32dd8ac with type: 3
btb_btbDbasic_btb_update_btb ip: ffffb32dd8b8 type 3 taken? 0
Updating branch ip: ffffb32dd8b8 with type: 3
btb_btbDbasic_btb_update_btb ip: ffffb32dd8cc type 3 taken? 0
Updating branch ip: ffffb32dd8cc with type: 3
btb_btbDbasic_btb_update_btb ip: ffffb32dd8d8 type 3 taken? 0
Updating branch ip: ffffb32dd8d8 with type: 3
btb_btbDbasic_btb_update_btb ip: ffffb32dd8e8 type 3 taken? 0
Updating branch ip: ffffb32dd8e8 with type: 3
btb_btbDbasic_btb_update_btb ip: ffffb32dd8f8 type 3 taken? 0
Updating branch ip: ffffb32dd8f8 with type: 3
btb_btbDbasic_btb_update_btb ip: ffffb32dd938 type 4 taken? 1
Updating branch ip: ffffb32dd938 with type: 2
btb_btbDbasic_btb_update_btb ip: ffffb3202988 type 6 taken? 1
Updating branch ip: ffffb3202988 with type: 1
btb_btbDbasic_btb_update_btb ip: ffffa3926f38 type 3 taken? 1
Updating branch ip: ffffa3926f38 with type: 2
btb_btbDbasic_btb_update_btb ip: ffffa3926fbc type 1 taken? 1
Updating branch ip: ffffa3926fbc with type: 2
btb_btbDbasic_btb_update_btb ip: ffffa3926fe0 type 4 taken? 1
Updating branch ip: ffffa3926fe0 with type: 2
btb_btbDbasic_btb_update_btb ip: ffffa3925edc type 2 taken? 1
Updating branch ip: ffffa3925edc with type: 0
btb_btbDbasic_btb_update_btb ip: ffffb7e17a4c type 1 taken? 1
Updating branch ip: ffffb7e17a4c with type: 2
btb_btbDbasic_btb_update_btb ip: ffffb7e17c44 type 3 taken? 1
Updating branch ip: ffffb7e17c44 with type: 2
btb_btbDbasic_btb_update_btb ip: ffffb7e17c9c type 4 taken? 1
Updating branch ip: ffffb7e17c9c with type: 2
btb_btbDbasic_btb_update_btb ip: ffffb7e23fc0 type 3 taken? 0
Updating branch ip: ffffb7e23fc0 with type: 3
btb_btbDbasic_btb_update_btb ip: ffffb7e23fe0 type 3 taken? 0
Updating branch ip: ffffb7e23fe0 with type: 3
btb_btbDbasic_btb_update_btb ip: ffffb7e23fe8 type 3 taken? 0
Updating branch ip: ffffb7e23fe8 with type: 3
btb_btbDbasic_btb_update_btb ip: ffffb7e23fec type 3 taken? 1
Updating branch ip: ffffb7e23fec with type: 2
btb_btbDbasic_btb_update_btb ip: ffffb7e23ffc type 3 taken? 0
Updating branch ip: ffffb7e23ffc with type: 3
btb_btbDbasic_btb_update_btb ip: ffffb7e2400c type 3 taken? 0
Updating branch ip: ffffb7e2400c with type: 3
btb_btbDbasic_btb_update_btb ip: ffffb7e24014 type 6 taken? 1
Updating branch ip: ffffb7e24014 with type: 1
btb_btbDbasic_btb_update_btb ip: ffff000008081c00 type 1 taken? 1
Updating branch ip: ffff000008081c00 with type: 2
btb_btbDbasic_btb_update_btb ip: ffff000008082890 type 3 taken? 1
Updating branch ip: ffff000008082890 with type: 2
btb_btbDbasic_btb_update_btb ip: ffff0000080828d0 type 3 taken? 1
Updating branch ip: ffff0000080828d0 with type: 2
btb_btbDbasic_btb_update_btb ip: ffff000008082edc type 3 taken? 0
Updating branch ip: ffff000008082edc with type: 3
btb_btbDbasic_btb_update_btb ip: ffff000008082ee4 type 3 taken? 0
Updating branch ip: ffff000008082ee4 with type: 3
btb_btbDbasic_btb_update_btb ip: ffff000008082eec type 5 taken? 1
Updating branch ip: ffff000008082eec with type: 0
btb_btbDbasic_btb_update_btb ip: ffff000008222ef8 type 3 taken? 1
Updating branch ip: ffff000008222ef8 with type: 2
btb_btbDbasic_btb_update_btb ip: ffff000008222fe0 type 4 taken? 1
Updating branch ip: ffff000008222fe0 with type: 2
btb_btbDbasic_btb_update_btb ip: ffff000008222b50 type 3 taken? 0
Updating branch ip: ffff000008222b50 with type: 3
btb_btbDbasic_btb_update_btb ip: ffff000008222b70 type 3 taken? 0
Updating branch ip: ffff000008222b70 with type: 3
btb_btbDbasic_btb_update_btb ip: ffff000008222b80 type 4 taken? 1
Updating branch ip: ffff000008222b80 with type: 2
btb_btbDbasic_btb_update_btb ip: ffff0000081fc83c type 4 taken? 1
Updating branch ip: ffff0000081fc83c with type: 2
btb_btbDbasic_btb_update_btb ip: ffff0000081fc7c4 type 3 taken? 0
Updating branch ip: ffff0000081fc7c4 with type: 3
btb_btbDbasic_btb_update_btb ip: ffff0000081fc7d0 type 4 taken? 1
Updating branch ip: ffff0000081fc7d0 with type: 2
btb_btbDbasic_btb_update_btb ip: ffff0000081fc020 type 3 taken? 0
Updating branch ip: ffff0000081fc020 with type: 3
btb_btbDbasic_btb_update_btb ip: ffff0000081fc02c type 3 taken? 0
Updating branch ip: ffff0000081fc02c with type: 3
btb_btbDbasic_btb_update_btb ip: ffff0000081fc038 type 3 taken? 0
Updating branch ip: ffff0000081fc038 with type: 3
btb_btbDbasic_btb_update_btb ip: ffff0000081fc040 type 3 taken? 0
Updating branch ip: ffff0000081fc040 with type: 3
btb_btbDbasic_btb_update_btb ip: ffff0000081fc058 type 3 taken? 0
Updating branch ip: ffff0000081fc058 with type: 3
btb_btbDbasic_btb_update_btb ip: ffff0000081fc060 type 3 taken? 0
Updating branch ip: ffff0000081fc060 with type: 3
btb_btbDbasic_btb_update_btb ip: ffff0000081fc070 type 3 taken? 1
Updating branch ip: ffff0000081fc070 with type: 2
btb_btbDbasic_btb_update_btb ip: ffff0000081fc0b8 type 6 taken? 1
Updating branch ip: ffff0000081fc0b8 with type: 1
btb_btbDbasic_btb_update_btb ip: ffff0000081fc7d4 type 3 taken? 0
Updating branch ip: ffff0000081fc7d4 with type: 3
btb_btbDbasic_btb_update_btb ip: ffff0000081fc7e0 type 6 taken? 1
Updating branch ip: ffff0000081fc7e0 with type: 1
btb_btbDbasic_btb_update_btb ip: ffff0000081fc844 type 6 taken? 1
Updating branch ip: ffff0000081fc844 with type: 1
btb_btbDbasic_btb_update_btb ip: ffff000008222b8c type 3 taken? 0
Updating branch ip: ffff000008222b8c with type: 3
btb_btbDbasic_btb_update_btb ip: ffff000008222ba4 type 3 taken? 1
Updating branch ip: ffff000008222ba4 with type: 2
btb_btbDbasic_btb_update_btb ip: ffff000008222c04 type 3 taken? 1
Updating branch ip: ffff000008222c04 with type: 2
btb_btbDbasic_btb_update_btb ip: ffff000008222d30 type 3 taken? 1
Updating branch ip: ffff000008222d30 with type: 2
btb_btbDbasic_btb_update_btb ip: ffff000008222d70 type 4 taken? 1
Updating branch ip: ffff000008222d70 with type: 2
btb_btbDbasic_btb_update_btb ip: ffff0000089df8c8 type 3 taken? 0
Updating branch ip: ffff0000089df8c8 with type: 3
btb_btbDbasic_btb_update_btb ip: ffff0000089df8d0 type 3 taken? 1
Updating branch ip: ffff0000089df8d0 with type: 2
btb_btbDbasic_btb_update_btb ip: ffff0000089df8ec type 6 taken? 1
Updating branch ip: ffff0000089df8ec with type: 1
btb_btbDbasic_btb_update_btb ip: ffff000008222d7c type 1 taken? 1
Updating branch ip: ffff000008222d7c with type: 2
btb_btbDbasic_btb_update_btb ip: ffff000008222cd4 type 3 taken? 0
Updating branch ip: ffff000008222cd4 with type: 3
btb_btbDbasic_btb_update_btb ip: ffff000008222ce0 type 3 taken? 1
Updating branch ip: ffff000008222ce0 with type: 2
btb_btbDbasic_btb_update_btb ip: ffff000008222ed0 type 4 taken? 1
Updating branch ip: ffff000008222ed0 with type: 2
btb_btbDbasic_btb_update_btb ip: ffff0000089df930 type 6 taken? 1
Updating branch ip: ffff0000089df930 with type: 1
btb_btbDbasic_btb_update_btb ip: ffff000008222ed4 type 1 taken? 1
Updating branch ip: ffff000008222ed4 with type: 2
btb_btbDbasic_btb_update_btb ip: ffff000008222ba8 type 3 taken? 1
Updating branch ip: ffff000008222ba8 with type: 2
btb_btbDbasic_btb_update_btb ip: ffff000008222bd4 type 4 taken? 1
Updating branch ip: ffff000008222bd4 with type: 2
btb_btbDbasic_btb_update_btb ip: ffff0000081e0c7c type 3 taken? 0
Updating branch ip: ffff0000081e0c7c with type: 3
btb_btbDbasic_btb_update_btb ip: ffff0000081e0c84 type 3 taken? 1
Updating branch ip: ffff0000081e0c84 with type: 2
btb_btbDbasic_btb_update_btb ip: ffff0000081e0d18 type 6 taken? 1
Updating branch ip: ffff0000081e0d18 with type: 1
btb_btbDbasic_btb_update_btb ip: ffff000008222bf4 type 6 taken? 1
Updating branch ip: ffff000008222bf4 with type: 1
btb_btbDbasic_btb_update_btb ip: ffff000008222fe8 type 1 taken? 1
Updating branch ip: ffff000008222fe8 with type: 2
btb_btbDbasic_btb_update_btb ip: ffff000008222f38 type 6 taken? 1
Updating branch ip: ffff000008222f38 with type: 1
btb_btbDbasic_btb_update_btb ip: ffff000008082ef0 type 1 taken? 1
Updating branch ip: ffff000008082ef0 with type: 2
btb_btbDbasic_btb_update_btb ip: ffff000008082d48 type 3 taken? 0
Updating branch ip: ffff000008082d48 with type: 3
btb_btbDbasic_btb_update_btb ip: ffff000008082d50 type 3 taken? 0
Updating branch ip: ffff000008082d50 with type: 3
btb_btbDbasic_btb_update_btb ip: ffff000008082d54 type 3 taken? 1
Updating branch ip: ffff000008082d54 with type: 2
btb_btbDbasic_btb_update_btb ip: ffffb7e17cc8 type 3 taken? 0
Updating branch ip: ffffb7e17cc8 with type: 3
btb_btbDbasic_btb_update_btb ip: ffffb7e17cd4 type 4 taken? 1
Updating branch ip: ffffb7e17cd4 with type: 2
btb_btbDbasic_btb_update_btb ip: ffffb7e24078 type 3 taken? 0
Updating branch ip: ffffb7e24078 with type: 3
btb_btbDbasic_btb_update_btb ip: ffffb7e240ac type 3 taken? 0
Updating branch ip: ffffb7e240ac with type: 3
btb_btbDbasic_btb_update_btb ip: ffffb7e240b4 type 3 taken? 0
Updating branch ip: ffffb7e240b4 with type: 3
btb_btbDbasic_btb_update_btb ip: ffffb7e240b8 type 3 taken? 0
Updating branch ip: ffffb7e240b8 with type: 3
btb_btbDbasic_btb_update_btb ip: ffffb7e240c4 type 3 taken? 0
Updating branch ip: ffffb7e240c4 with type: 3
btb_btbDbasic_btb_update_btb ip: ffffb7e240d0 type 3 taken? 0
Updating branch ip: ffffb7e240d0 with type: 3
btb_btbDbasic_btb_update_btb ip: ffffb7e240d8 type 6 taken? 1
Updating branch ip: ffffb7e240d8 with type: 1
btb_btbDbasic_btb_update_btb ip: ffffb7e17cec type 6 taken? 1
Updating branch ip: ffffb7e17cec with type: 1
btb_btbDbasic_btb_update_btb ip: ffffa3926fec type 3 taken? 0
Updating branch ip: ffffa3926fec with type: 3
btb_btbDbasic_btb_update_btb ip: ffffa3926ff0 type 3 taken? 1
Updating branch ip: ffffa3926ff0 with type: 2
btb_btbDbasic_btb_update_btb ip: ffffa3926fb4 type 6 taken? 1
Updating branch ip: ffffa3926fb4 with type: 1
btb_btbDbasic_btb_update_btb ip: ffffb32029ac type 3 taken? 0
Updating branch ip: ffffb32029ac with type: 3
btb_btbDbasic_btb_update_btb ip: ffffb32029c0 type 3 taken? 0
Updating branch ip: ffffb32029c0 with type: 3
btb_btbDbasic_btb_update_btb ip: ffffb32029e0 type 3 taken? 0
Updating branch ip: ffffb32029e0 with type: 3
btb_btbDbasic_btb_update_btb ip: ffffb32029e8 type 6 taken? 1
Updating branch ip: ffffb32029e8 with type: 1
btb_btbDbasic_btb_update_btb ip: ffffb32dd960 type 3 taken? 1
Updating branch ip: ffffb32dd960 with type: 2
btb_btbDbasic_btb_update_btb ip: ffffb32dd9e0 type 3 taken? 0
Updating branch ip: ffffb32dd9e0 with type: 3
btb_btbDbasic_btb_update_btb ip: ffffb32dd9e4 type 3 taken? 0
Updating branch ip: ffffb32dd9e4 with type: 3
btb_btbDbasic_btb_update_btb ip: ffffb32dd9f8 type 3 taken? 1
Updating branch ip: ffffb32dd9f8 with type: 2
btb_btbDbasic_btb_update_btb ip: ffffb32dda24 type 3 taken? 0
Updating branch ip: ffffb32dda24 with type: 3
btb_btbDbasic_btb_update_btb ip: ffffb32dda30 type 3 taken? 0
Updating branch ip: ffffb32dda30 with type: 3
btb_btbDbasic_btb_update_btb ip: ffffb32dda4c type 3 taken? 0
Updating branch ip: ffffb32dda4c with type: 3
btb_btbDbasic_btb_update_btb ip: ffffb32dda58 type 3 taken? 0
Updating branch ip: ffffb32dda58 with type: 3
btb_btbDbasic_btb_update_btb ip: ffffb32dda68 type 3 taken? 0
Updating branch ip: ffffb32dda68 with type: 3
btb_btbDbasic_btb_update_btb ip: ffffb32dda78 type 3 taken? 0
Updating branch ip: ffffb32dda78 with type: 3
btb_btbDbasic_btb_update_btb ip: ffffb32dda9c type 3 taken? 1
Updating branch ip: ffffb32dda9c with type: 2
btb_btbDbasic_btb_update_btb ip: ffffb32ddac8 type 3 taken? 0
Updating branch ip: ffffb32ddac8 with type: 3
btb_btbDbasic_btb_update_btb ip: ffffb32ddad4 type 3 taken? 0
Updating branch ip: ffffb32ddad4 with type: 3
btb_btbDbasic_btb_update_btb ip: ffffb32ddae4 type 3 taken? 0
Updating branch ip: ffffb32ddae4 with type: 3
btb_btbDbasic_btb_update_btb ip: ffffb32ddaf4 type 3 taken? 0
Updating branch ip: ffffb32ddaf4 with type: 3
btb_btbDbasic_btb_update_btb ip: ffffb32ddb04 type 3 taken? 0
Updating branch ip: ffffb32ddb04 with type: 3
btb_btbDbasic_btb_update_btb ip: ffffb32ddb10 type 3 taken? 0
Updating branch ip: ffffb32ddb10 with type: 3
btb_btbDbasic_btb_update_btb ip: ffffb32ddb20 type 3 taken? 0
Updating branch ip: ffffb32ddb20 with type: 3
btb_btbDbasic_btb_update_btb ip: ffffb32ddb30 type 3 taken? 0
Updating branch ip: ffffb32ddb30 with type: 3
btb_btbDbasic_btb_update_btb ip: ffffb32ddb44 type 3 taken? 1
Updating branch ip: ffffb32ddb44 with type: 2
btb_btbDbasic_btb_update_btb ip: ffffb32dde6c type 3 taken? 1
Updating branch ip: ffffb32dde6c with type: 2
btb_btbDbasic_btb_update_btb ip: ffffb32ddf7c type 3 taken? 0
Updating branch ip: ffffb32ddf7c with type: 3
btb_btbDbasic_btb_update_btb ip: ffffb32ddf88 type 3 taken? 0
Updating branch ip: ffffb32ddf88 with type: 3
btb_btbDbasic_btb_update_btb ip: ffffb32ddf98 type 3 taken? 0
Updating branch ip: ffffb32ddf98 with type: 3
btb_btbDbasic_btb_update_btb ip: ffffb32ddfa8 type 3 taken? 0
Updating branch ip: ffffb32ddfa8 with type: 3
btb_btbDbasic_btb_update_btb ip: ffffb32ddfbc type 3 taken? 0
Updating branch ip: ffffb32ddfbc with type: 3
btb_btbDbasic_btb_update_btb ip: ffffb32ddfc8 type 3 taken? 0
Updating branch ip: ffffb32ddfc8 with type: 3
btb_btbDbasic_btb_update_btb ip: ffffb32ddfd8 type 3 taken? 0
Updating branch ip: ffffb32ddfd8 with type: 3
btb_btbDbasic_btb_update_btb ip: ffffb32ddfe8 type 3 taken? 0
Updating branch ip: ffffb32ddfe8 with type: 3
btb_btbDbasic_btb_update_btb ip: ffffb32ddff8 type 3 taken? 0
Updating branch ip: ffffb32ddff8 with type: 3
btb_btbDbasic_btb_update_btb ip: ffffb32de004 type 3 taken? 0
Updating branch ip: ffffb32de004 with type: 3
btb_btbDbasic_btb_update_btb ip: ffffb32de014 type 3 taken? 0
Updating branch ip: ffffb32de014 with type: 3
btb_btbDbasic_btb_update_btb ip: ffffb32de024 type 3 taken? 0
Updating branch ip: ffffb32de024 with type: 3
btb_btbDbasic_btb_update_btb ip: ffffb32de03c type 6 taken? 1
Updating branch ip: ffffb32de03c with type: 1
btb_btbDbasic_btb_update_btb ip: ffffb330cdd4 type 3 taken? 0
Updating branch ip: ffffb330cdd4 with type: 3
btb_btbDbasic_btb_update_btb ip: ffffb330cdf8 type 3 taken? 0
Updating branch ip: ffffb330cdf8 with type: 3
btb_btbDbasic_btb_update_btb ip: ffffb330ce00 type 4 taken? 1
Updating branch ip: ffffb330ce00 with type: 2
btb_btbDbasic_btb_update_btb ip: ffffb72e8ce8 type 3 taken? 0
Updating branch ip: ffffb72e8ce8 with type: 3
btb_btbDbasic_btb_update_btb ip: ffffb72e8cf4 type 5 taken? 1
Updating branch ip: ffffb72e8cf4 with type: 0
btb_btbDbasic_btb_update_btb ip: ffffb7e24700 type 3 taken? 0
Updating branch ip: ffffb7e24700 with type: 3
btb_btbDbasic_btb_update_btb ip: ffffb7e24708 type 5 taken? 1
Updating branch ip: ffffb7e24708 with type: 0
btb_btbDbasic_btb_update_btb ip: ffffb7fd03a4 type 3 taken? 0
Updating branch ip: ffffb7fd03a4 with type: 3
btb_btbDbasic_btb_update_btb ip: ffffb7fd03b4 type 2 taken? 1
Updating branch ip: ffffb7fd03b4 with type: 0
btb_btbDbasic_btb_update_btb ip: ffffb7fd03c4 type 1 taken? 1
Updating branch ip: ffffb7fd03c4 with type: 2
btb_btbDbasic_btb_update_btb ip: ffffb7fd0464 type 3 taken? 0
Updating branch ip: ffffb7fd0464 with type: 3
btb_btbDbasic_btb_update_btb ip: ffffb7fd0470 type 3 taken? 0
Updating branch ip: ffffb7fd0470 with type: 3
btb_btbDbasic_btb_update_btb ip: ffffb7fd0490 type 3 taken? 0
Updating branch ip: ffffb7fd0490 with type: 3
btb_btbDbasic_btb_update_btb ip: ffffb7fd04d8 type 3 taken? 0
Updating branch ip: ffffb7fd04d8 with type: 3
btb_btbDbasic_btb_update_btb ip: ffffb7fd04e8 type 3 taken? 1
Updating branch ip: ffffb7fd04e8 with type: 2
btb_btbDbasic_btb_update_btb ip: ffffb7fd0500 type 6 taken? 1
Updating branch ip: ffffb7fd0500 with type: 1
btb_btbDbasic_btb_update_btb ip: ffffb7e24714 type 3 taken? 1
Updating branch ip: ffffb7e24714 with type: 2
btb_btbDbasic_btb_update_btb ip: ffffb7e24740 type 6 taken? 1
Updating branch ip: ffffb7e24740 with type: 1
btb_btbDbasic_btb_update_btb ip: ffffb72e8d14 type 6 taken? 1
Updating branch ip: ffffb72e8d14 with type: 1
btb_btbDbasic_btb_update_btb ip: ffffb330ce0c type 4 taken? 1
Updating branch ip: ffffb330ce0c with type: 2
btb_btbDbasic_btb_update_btb ip: ffffb3380674 type 3 taken? 0
Updating branch ip: ffffb3380674 with type: 3
btb_btbDbasic_btb_update_btb ip: ffffb3380690 type 3 taken? 0
Updating branch ip: ffffb3380690 with type: 3
btb_btbDbasic_btb_update_btb ip: ffffb33806a0 type 1 taken? 1
Updating branch ip: ffffb33806a0 with type: 2
btb_btbDbasic_btb_update_btb ip: ffffb33806dc type 3 taken? 0
Updating branch ip: ffffb33806dc with type: 3
btb_btbDbasic_btb_update_btb ip: ffffb33806e8 type 3 taken? 0
Updating branch ip: ffffb33806e8 with type: 3
btb_btbDbasic_btb_update_btb ip: ffffb3380700 type 6 taken? 1
Updating branch ip: ffffb3380700 with type: 1
btb_btbDbasic_btb_update_btb ip: ffffb330ce10 type 4 taken? 1
Updating branch ip: ffffb330ce10 with type: 2
btb_btbDbasic_btb_update_btb ip: ffffb72e8ce8 type 3 taken? 0
Updating branch ip: ffffb72e8ce8 with type: 3
btb_btbDbasic_btb_update_btb ip: ffffb72e8cf4 type 5 taken? 1
Updating branch ip: ffffb72e8cf4 with type: 0
btb_btbDbasic_btb_update_btb ip: ffffb7e24700 type 3 taken? 0
Updating branch ip: ffffb7e24700 with type: 3
btb_btbDbasic_btb_update_btb ip: ffffb7e24708 type 5 taken? 1
Updating branch ip: ffffb7e24708 with type: 0
btb_btbDbasic_btb_update_btb ip: ffffb7fd03a4 type 3 taken? 0
Updating branch ip: ffffb7fd03a4 with type: 3
btb_btbDbasic_btb_update_btb ip: ffffb7fd03b4 type 2 taken? 1
Updating branch ip: ffffb7fd03b4 with type: 0
btb_btbDbasic_btb_update_btb ip: ffffb7fd03c4 type 1 taken? 1
Updating branch ip: ffffb7fd03c4 with type: 2
btb_btbDbasic_btb_update_btb ip: ffffb7fd0464 type 3 taken? 0
Updating branch ip: ffffb7fd0464 with type: 3
btb_btbDbasic_btb_update_btb ip: ffffb7fd0470 type 3 taken? 0
Updating branch ip: ffffb7fd0470 with type: 3
btb_btbDbasic_btb_update_btb ip: ffffb7fd0490 type 3 taken? 0
Updating branch ip: ffffb7fd0490 with type: 3
btb_btbDbasic_btb_update_btb ip: ffffb7fd04d8 type 3 taken? 0
Updating branch ip: ffffb7fd04d8 with type: 3
btb_btbDbasic_btb_update_btb ip: ffffb7fd04e8 type 3 taken? 1
Updating branch ip: ffffb7fd04e8 with type: 2
btb_btbDbasic_btb_update_btb ip: ffffb7fd0500 type 6 taken? 1
Updating branch ip: ffffb7fd0500 with type: 1
btb_btbDbasic_btb_update_btb ip: ffffb7e24714 type 3 taken? 1
Updating branch ip: ffffb7e24714 with type: 2
btb_btbDbasic_btb_update_btb ip: ffffb7e24740 type 6 taken? 1
Updating branch ip: ffffb7e24740 with type: 1
btb_btbDbasic_btb_update_btb ip: ffffb72e8d14 type 6 taken? 1
Updating branch ip: ffffb72e8d14 with type: 1
btb_btbDbasic_btb_update_btb ip: ffffb330ce30 type 3 taken? 0
Updating branch ip: ffffb330ce30 with type: 3
btb_btbDbasic_btb_update_btb ip: ffffb330ce40 type 4 taken? 1
Updating branch ip: ffffb330ce40 with type: 2
btb_btbDbasic_btb_update_btb ip: ffffb30a96e8 type 4 taken? 1
Updating branch ip: ffffb30a96e8 with type: 2
btb_btbDbasic_btb_update_btb ip: ffffb72e8ce8 type 3 taken? 0
Updating branch ip: ffffb72e8ce8 with type: 3
btb_btbDbasic_btb_update_btb ip: ffffb72e8cf4 type 5 taken? 1
Updating branch ip: ffffb72e8cf4 with type: 0
btb_btbDbasic_btb_update_btb ip: ffffb7e24700 type 3 taken? 0
Updating branch ip: ffffb7e24700 with type: 3
btb_btbDbasic_btb_update_btb ip: ffffb7e24708 type 5 taken? 1
Updating branch ip: ffffb7e24708 with type: 0
btb_btbDbasic_btb_update_btb ip: ffffb7fd03a4 type 3 taken? 0
Updating branch ip: ffffb7fd03a4 with type: 3
btb_btbDbasic_btb_update_btb ip: ffffb7fd03b4 type 2 taken? 1
Updating branch ip: ffffb7fd03b4 with type: 0
btb_btbDbasic_btb_update_btb ip: ffffb7fd03c4 type 1 taken? 1
Updating branch ip: ffffb7fd03c4 with type: 2
btb_btbDbasic_btb_update_btb ip: ffffb7fd0464 type 3 taken? 0
Updating branch ip: ffffb7fd0464 with type: 3
btb_btbDbasic_btb_update_btb ip: ffffb7fd0470 type 3 taken? 0
Updating branch ip: ffffb7fd0470 with type: 3
btb_btbDbasic_btb_update_btb ip: ffffb7fd0490 type 3 taken? 0
Updating branch ip: ffffb7fd0490 with type: 3
btb_btbDbasic_btb_update_btb ip: ffffb7fd04d8 type 3 taken? 0
Updating branch ip: ffffb7fd04d8 with type: 3
btb_btbDbasic_btb_update_btb ip: ffffb7fd04e8 type 3 taken? 1
Updating branch ip: ffffb7fd04e8 with type: 2
btb_btbDbasic_btb_update_btb ip: ffffb7fd0500 type 6 taken? 1
Updating branch ip: ffffb7fd0500 with type: 1
btb_btbDbasic_btb_update_btb ip: ffffb7e24714 type 3 taken? 1
Updating branch ip: ffffb7e24714 with type: 2
btb_btbDbasic_btb_update_btb ip: ffffb7e24740 type 6 taken? 1
Updating branch ip: ffffb7e24740 with type: 1
btb_btbDbasic_btb_update_btb ip: ffffb72e8d14 type 6 taken? 1
Updating branch ip: ffffb72e8d14 with type: 1
btb_btbDbasic_btb_update_btb ip: ffffb30a9714 type 3 taken? 0
Updating branch ip: ffffb30a9714 with type: 3
btb_btbDbasic_btb_update_btb ip: ffffb30a9724 type 3 taken? 0
Updating branch ip: ffffb30a9724 with type: 3
btb_btbDbasic_btb_update_btb ip: ffffb30a9738 type 3 taken? 0
Updating branch ip: ffffb30a9738 with type: 3
btb_btbDbasic_btb_update_btb ip: ffffb30a9740 type 3 taken? 0
Updating branch ip: ffffb30a9740 with type: 3
btb_btbDbasic_btb_update_btb ip: ffffb30a9754 type 3 taken? 0
Updating branch ip: ffffb30a9754 with type: 3
btb_btbDbasic_btb_update_btb ip: ffffb30a9760 type 3 taken? 0
Updating branch ip: ffffb30a9760 with type: 3
btb_btbDbasic_btb_update_btb ip: ffffb30a9774 type 3 taken? 0
Updating branch ip: ffffb30a9774 with type: 3
btb_btbDbasic_btb_update_btb ip: ffffb30a9784 type 3 taken? 1
Updating branch ip: ffffb30a9784 with type: 2
btb_btbDbasic_btb_update_btb ip: ffffb30a9948 type 6 taken? 1
Updating branch ip: ffffb30a9948 with type: 1
btb_btbDbasic_btb_update_btb ip: ffffb330ce64 type 3 taken? 0
Updating branch ip: ffffb330ce64 with type: 3
btb_btbDbasic_btb_update_btb ip: ffffb330ce78 type 3 taken? 0
Updating branch ip: ffffb330ce78 with type: 3
btb_btbDbasic_btb_update_btb ip: ffffb330cea8 type 3 taken? 0
Updating branch ip: ffffb330cea8 with type: 3
btb_btbDbasic_btb_update_btb ip: ffffb330ceb8 type 3 taken? 0
Updating branch ip: ffffb330ceb8 with type: 3
btb_btbDbasic_btb_update_btb ip: ffffb330cec8 type 1 taken? 1
Updating branch ip: ffffb330cec8 with type: 2
btb_btbDbasic_btb_update_btb ip: ffffb330cf50 type 3 taken? 0
Updating branch ip: ffffb330cf50 with type: 3
btb_btbDbasic_btb_update_btb ip: ffffb330cf54 type 3 taken? 1
Updating branch ip: ffffb330cf54 with type: 2
btb_btbDbasic_btb_update_btb ip: ffffb330cbfc type 3 taken? 0
Updating branch ip: ffffb330cbfc with type: 3
btb_btbDbasic_btb_update_btb ip: ffffb330cc10 type 3 taken? 0
Updating branch ip: ffffb330cc10 with type: 3
btb_btbDbasic_btb_update_btb ip: ffffb330cc48 type 3 taken? 0
Updating branch ip: ffffb330cc48 with type: 3
btb_btbDbasic_btb_update_btb ip: ffffb330cca4 type 3 taken? 0
Updating branch ip: ffffb330cca4 with type: 3
btb_btbDbasic_btb_update_btb ip: ffffb330ccb8 type 3 taken? 0
Updating branch ip: ffffb330ccb8 with type: 3
btb_btbDbasic_btb_update_btb ip: ffffb330cce4 type 3 taken? 0
Updating branch ip: ffffb330cce4 with type: 3
btb_btbDbasic_btb_update_btb ip: ffffb330cd00 type 3 taken? 0
Updating branch ip: ffffb330cd00 with type: 3
btb_btbDbasic_btb_update_btb ip: ffffb330cd04 type 3 taken? 0
Updating branch ip: ffffb330cd04 with type: 3
btb_btbDbasic_btb_update_btb ip: ffffb330cd10 type 3 taken? 1
Updating branch ip: ffffb330cd10 with type: 2
btb_btbDbasic_btb_update_btb ip: ffffb330cda0 type 3 taken? 0
Updating branch ip: ffffb330cda0 with type: 3
btb_btbDbasic_btb_update_btb ip: ffffb330cda8 type 3 taken? 0
Updating branch ip: ffffb330cda8 with type: 3
btb_btbDbasic_btb_update_btb ip: ffffb330cdb4 type 3 taken? 0
Updating branch ip: ffffb330cdb4 with type: 3
btb_btbDbasic_btb_update_btb ip: ffffb330cdbc type 4 taken? 1
Updating branch ip: ffffb330cdbc with type: 2
btb_btbDbasic_btb_update_btb ip: ffffb32dd34c type 4 taken? 1
Updating branch ip: ffffb32dd34c with type: 2
btb_btbDbasic_btb_update_btb ip: ffffb72e8ce8 type 3 taken? 0
Updating branch ip: ffffb72e8ce8 with type: 3
btb_btbDbasic_btb_update_btb ip: ffffb72e8cf4 type 5 taken? 1
Updating branch ip: ffffb72e8cf4 with type: 0
btb_btbDbasic_btb_update_btb ip: ffffb7e24700 type 3 taken? 0
Updating branch ip: ffffb7e24700 with type: 3
btb_btbDbasic_btb_update_btb ip: ffffb7e24708 type 5 taken? 1
Updating branch ip: ffffb7e24708 with type: 0
btb_btbDbasic_btb_update_btb ip: ffffb7fd03a4 type 3 taken? 0
Updating branch ip: ffffb7fd03a4 with type: 3
btb_btbDbasic_btb_update_btb ip: ffffb7fd03b4 type 2 taken? 1
Updating branch ip: ffffb7fd03b4 with type: 0
btb_btbDbasic_btb_update_btb ip: ffffb7fd03c4 type 1 taken? 1
Updating branch ip: ffffb7fd03c4 with type: 2
btb_btbDbasic_btb_update_btb ip: ffffb7fd0464 type 3 taken? 0
Updating branch ip: ffffb7fd0464 with type: 3
btb_btbDbasic_btb_update_btb ip: ffffb7fd0470 type 3 taken? 0
Updating branch ip: ffffb7fd0470 with type: 3
btb_btbDbasic_btb_update_btb ip: ffffb7fd0490 type 3 taken? 0
Updating branch ip: ffffb7fd0490 with type: 3
btb_btbDbasic_btb_update_btb ip: ffffb7fd04d8 type 3 taken? 0
Updating branch ip: ffffb7fd04d8 with type: 3
btb_btbDbasic_btb_update_btb ip: ffffb7fd04e8 type 3 taken? 1
Updating branch ip: ffffb7fd04e8 with type: 2
btb_btbDbasic_btb_update_btb ip: ffffb7fd0500 type 6 taken? 1
Updating branch ip: ffffb7fd0500 with type: 1
btb_btbDbasic_btb_update_btb ip: ffffb7e24714 type 3 taken? 1
Updating branch ip: ffffb7e24714 with type: 2
btb_btbDbasic_btb_update_btb ip: ffffb7e24740 type 6 taken? 1
Updating branch ip: ffffb7e24740 with type: 1
btb_btbDbasic_btb_update_btb ip: ffffb72e8d14 type 6 taken? 1
Updating branch ip: ffffb72e8d14 with type: 1
btb_btbDbasic_btb_update_btb ip: ffffb32dd378 type 3 taken? 0
Updating branch ip: ffffb32dd378 with type: 3
btb_btbDbasic_btb_update_btb ip: ffffb32dd380 type 3 taken? 0
Updating branch ip: ffffb32dd380 with type: 3
btb_btbDbasic_btb_update_btb ip: ffffb32dd394 type 3 taken? 0
Updating branch ip: ffffb32dd394 with type: 3
btb_btbDbasic_btb_update_btb ip: ffffb32dd3a0 type 3 taken? 0
Updating branch ip: ffffb32dd3a0 with type: 3
btb_btbDbasic_btb_update_btb ip: ffffb32dd3b4 type 3 taken? 0
Updating branch ip: ffffb32dd3b4 with type: 3
btb_btbDbasic_btb_update_btb ip: ffffb32dd3e0 type 1 taken? 1
Updating branch ip: ffffb32dd3e0 with type: 2
btb_btbDbasic_btb_update_btb ip: ffffb32dd470 type 3 taken? 1
Updating branch ip: ffffb32dd470 with type: 2
btb_btbDbasic_btb_update_btb ip: ffffb32dd570 type 3 taken? 0
Updating branch ip: ffffb32dd570 with type: 3
btb_btbDbasic_btb_update_btb ip: ffffb32dd584 type 3 taken? 1
Updating branch ip: ffffb32dd584 with type: 2
btb_btbDbasic_btb_update_btb ip: ffffb32dd5b0 type 3 taken? 0
Updating branch ip: ffffb32dd5b0 with type: 3
btb_btbDbasic_btb_update_btb ip: ffffb32dd5bc type 3 taken? 0
Updating branch ip: ffffb32dd5bc with type: 3
btb_btbDbasic_btb_update_btb ip: ffffb32dd5d8 type 3 taken? 0
Updating branch ip: ffffb32dd5d8 with type: 3
btb_btbDbasic_btb_update_btb ip: ffffb32dd5dc type 3 taken? 0
Updating branch ip: ffffb32dd5dc with type: 3
btb_btbDbasic_btb_update_btb ip: ffffb32dd5f0 type 3 taken? 1
Updating branch ip: ffffb32dd5f0 with type: 2
btb_btbDbasic_btb_update_btb ip: ffffb32dd61c type 3 taken? 0
Updating branch ip: ffffb32dd61c with type: 3
btb_btbDbasic_btb_update_btb ip: ffffb32dd628 type 3 taken? 0
Updating branch ip: ffffb32dd628 with type: 3
btb_btbDbasic_btb_update_btb ip: ffffb32dd634 type 3 taken? 0
Updating branch ip: ffffb32dd634 with type: 3
btb_btbDbasic_btb_update_btb ip: ffffb32dd648 type 3 taken? 1
Updating branch ip: ffffb32dd648 with type: 2
btb_btbDbasic_btb_update_btb ip: ffffb32dd674 type 3 taken? 0
Updating branch ip: ffffb32dd674 with type: 3
btb_btbDbasic_btb_update_btb ip: ffffb32dd680 type 3 taken? 0
Updating branch ip: ffffb32dd680 with type: 3
btb_btbDbasic_btb_update_btb ip: ffffb32dd694 type 3 taken? 0
Updating branch ip: ffffb32dd694 with type: 3
btb_btbDbasic_btb_update_btb ip: ffffb32dd6ac type 3 taken? 1
Updating branch ip: ffffb32dd6ac with type: 2
btb_btbDbasic_btb_update_btb ip: ffffb32dd6d8 type 3 taken? 0
Updating branch ip: ffffb32dd6d8 with type: 3
btb_btbDbasic_btb_update_btb ip: ffffb32dd6e4 type 3 taken? 0
Updating branch ip: ffffb32dd6e4 with type: 3
btb_btbDbasic_btb_update_btb ip: ffffb32dd6f4 type 3 taken? 0
Updating branch ip: ffffb32dd6f4 with type: 3
btb_btbDbasic_btb_update_btb ip: ffffb32dd704 type 3 taken? 0
Updating branch ip: ffffb32dd704 with type: 3
btb_btbDbasic_btb_update_btb ip: ffffb32dd714 type 3 taken? 0
Updating branch ip: ffffb32dd714 with type: 3
btb_btbDbasic_btb_update_btb ip: ffffb32dd720 type 3 taken? 0
Updating branch ip: ffffb32dd720 with type: 3
btb_btbDbasic_btb_update_btb ip: ffffb32dd730 type 3 taken? 0
Updating branch ip: ffffb32dd730 with type: 3
btb_btbDbasic_btb_update_btb ip: ffffb32dd740 type 3 taken? 0
Updating branch ip: ffffb32dd740 with type: 3
btb_btbDbasic_btb_update_btb ip: ffffb32dd764 type 3 taken? 0
Updating branch ip: ffffb32dd764 with type: 3
btb_btbDbasic_btb_update_btb ip: ffffb32dd778 type 3 taken? 0
Updating branch ip: ffffb32dd778 with type: 3
btb_btbDbasic_btb_update_btb ip: ffffb32dd77c type 3 taken? 0
Updating branch ip: ffffb32dd77c with type: 3
btb_btbDbasic_btb_update_btb ip: ffffb32dd790 type 3 taken? 1
Updating branch ip: ffffb32dd790 with type: 2
btb_btbDbasic_btb_update_btb ip: ffffb32dd7bc type 3 taken? 0
Updating branch ip: ffffb32dd7bc with type: 3
btb_btbDbasic_btb_update_btb ip: ffffb32dd7c8 type 3 taken? 0
Updating branch ip: ffffb32dd7c8 with type: 3
btb_btbDbasic_btb_update_btb ip: ffffb32dd7ec type 3 taken? 1
Updating branch ip: ffffb32dd7ec with type: 2
btb_btbDbasic_btb_update_btb ip: ffffb32dd804 type 3 taken? 0
Updating branch ip: ffffb32dd804 with type: 3
btb_btbDbasic_btb_update_btb ip: ffffb32dd810 type 3 taken? 0
Updating branch ip: ffffb32dd810 with type: 3
btb_btbDbasic_btb_update_btb ip: ffffb32dd820 type 3 taken? 0
Updating branch ip: ffffb32dd820 with type: 3
btb_btbDbasic_btb_update_btb ip: ffffb32dd830 type 3 taken? 0
Updating branch ip: ffffb32dd830 with type: 3
btb_btbDbasic_btb_update_btb ip: ffffb32dd840 type 3 taken? 0
Updating branch ip: ffffb32dd840 with type: 3
btb_btbDbasic_btb_update_btb ip: ffffb32dd850 type 3 taken? 0
Updating branch ip: ffffb32dd850 with type: 3
btb_btbDbasic_btb_update_btb ip: ffffb32dd860 type 3 taken? 0
Updating branch ip: ffffb32dd860 with type: 3
btb_btbDbasic_btb_update_btb ip: ffffb32dd874 type 3 taken? 1
Updating branch ip: ffffb32dd874 with type: 2
btb_btbDbasic_btb_update_btb ip: ffffb32dd8a0 type 3 taken? 0
Updating branch ip: ffffb32dd8a0 with type: 3
btb_btbDbasic_btb_update_btb ip: ffffb32dd8ac type 3 taken? 0
Updating branch ip: ffffb32dd8ac with type: 3
btb_btbDbasic_btb_update_btb ip: ffffb32dd8b8 type 3 taken? 0
Updating branch ip: ffffb32dd8b8 with type: 3
btb_btbDbasic_btb_update_btb ip: ffffb32dd8cc type 3 taken? 0
Updating branch ip: ffffb32dd8cc with type: 3
btb_btbDbasic_btb_update_btb ip: ffffb32dd8d8 type 3 taken? 0
Updating branch ip: ffffb32dd8d8 with type: 3
btb_btbDbasic_btb_update_btb ip: ffffb32dd8e8 type 3 taken? 0
Updating branch ip: ffffb32dd8e8 with type: 3
btb_btbDbasic_btb_update_btb ip: ffffb32dd8f8 type 3 taken? 0
Updating branch ip: ffffb32dd8f8 with type: 3
btb_btbDbasic_btb_update_btb ip: ffffb32dd938 type 4 taken? 1
Updating branch ip: ffffb32dd938 with type: 2
btb_btbDbasic_btb_update_btb ip: ffffb3202988 type 6 taken? 1
Updating branch ip: ffffb3202988 with type: 1
btb_btbDbasic_btb_update_btb ip: ffffa3926f38 type 3 taken? 1
Updating branch ip: ffffa3926f38 with type: 2
btb_btbDbasic_btb_update_btb ip: ffffa3926fbc type 1 taken? 1
Updating branch ip: ffffa3926fbc with type: 2
btb_btbDbasic_btb_update_btb ip: ffffa3926fe0 type 4 taken? 1
Updating branch ip: ffffa3926fe0 with type: 2
btb_btbDbasic_btb_update_btb ip: ffffa3925edc type 2 taken? 1
Updating branch ip: ffffa3925edc with type: 0
btb_btbDbasic_btb_update_btb ip: ffffb7e17a4c type 1 taken? 1
Updating branch ip: ffffb7e17a4c with type: 2
btb_btbDbasic_btb_update_btb ip: ffffb7e17c44 type 3 taken? 1
Updating branch ip: ffffb7e17c44 with type: 2
btb_btbDbasic_btb_update_btb ip: ffffb7e17c9c type 4 taken? 1
Updating branch ip: ffffb7e17c9c with type: 2
btb_btbDbasic_btb_update_btb ip: ffffb7e23fc0 type 3 taken? 0
Updating branch ip: ffffb7e23fc0 with type: 3
btb_btbDbasic_btb_update_btb ip: ffffb7e23fe0 type 3 taken? 0
Updating branch ip: ffffb7e23fe0 with type: 3
btb_btbDbasic_btb_update_btb ip: ffffb7e23fe8 type 3 taken? 0
Updating branch ip: ffffb7e23fe8 with type: 3
btb_btbDbasic_btb_update_btb ip: ffffb7e23fec type 3 taken? 1
Updating branch ip: ffffb7e23fec with type: 2
btb_btbDbasic_btb_update_btb ip: ffffb7e23ffc type 3 taken? 0
Updating branch ip: ffffb7e23ffc with type: 3
btb_btbDbasic_btb_update_btb ip: ffffb7e2400c type 3 taken? 0
Updating branch ip: ffffb7e2400c with type: 3
btb_btbDbasic_btb_update_btb ip: ffffb7e24014 type 6 taken? 1
Updating branch ip: ffffb7e24014 with type: 1
btb_btbDbasic_btb_update_btb ip: ffff000008081c00 type 1 taken? 1
Updating branch ip: ffff000008081c00 with type: 2
btb_btbDbasic_btb_update_btb ip: ffff000008082890 type 3 taken? 1
Updating branch ip: ffff000008082890 with type: 2
btb_btbDbasic_btb_update_btb ip: ffff0000080828d0 type 3 taken? 1
[...]
Updating branch ip: ffffb32dd9e4 with type: 3
btb_btbDbasic_btb_update_btb ip: ffffb32dd9f8 type 3 taken? 1
Updating branch ip: ffffb32dd9f8 with type: 2
btb_btbDbasic_btb_update_btb ip: ffffb32dda24 type 3 taken? 0
Updating branch ip: ffffb32dda24 with type: 3
btb_btbDbasic_btb_update_btb ip: ffffb32dda30 type 3 taken? 0
Updating branch ip: ffffb32dda30 with type: 3
btb_btbDbasic_btb_update_btb ip: ffffb32dda4c type 3 taken? 0
Updating branch ip: ffffb32dda4c with type: 3
btb_btbDbasic_btb_update_btb ip: ffffb32dda58 type 3 taken? 0
Updating branch ip: ffffb32dda58 with type: 3
btb_btbDbasic_btb_update_btb ip: ffffb32dda68 type 3 taken? 0
Updating branch ip: ffffb32dda68 with type: 3
btb_btbDbasic_btb_update_btb ip: ffffb32dda78 type 3 taken? 0
Updating branch ip: ffffb32dda78 with type: 3
btb_btbDbasic_btb_update_btb ip: ffffb32dda9c type 3 taken? 1
Updating branch ip: ffffb32dda9c with type: 2
btb_btbDbasic_btb_update_btb ip: ffffb32ddac8 type 3 taken? 0
Updating branch ip: ffffb32ddac8 with type: 3
btb_btbDbasic_btb_update_btb ip: ffffb32ddad4 type 3 taken? 0
Updating branch ip: ffffb32ddad4 with type: 3
btb_btbDbasic_btb_update_btb ip: ffffb32ddae4 type 3 taken? 0
Updating branch ip: ffffb32ddae4 with type: 3
btb_btbDbasic_btb_update_btb ip: ffffb32ddaf4 type 3 taken? 0
Updating branch ip: ffffb32ddaf4 with type: 3
btb_btbDbasic_btb_update_btb ip: ffffb32ddb04 type 3 taken? 0
Updating branch ip: ffffb32ddb04 with type: 3
btb_btbDbasic_btb_update_btb ip: ffffb32ddb10 type 3 taken? 0
Updating branch ip: ffffb32ddb10 with type: 3
btb_btbDbasic_btb_update_btb ip: ffffb32ddb20 type 3 taken? 0
Updating branch ip: ffffb32ddb20 with type: 3
btb_btbDbasic_btb_update_btb ip: ffffb32ddb30 type 3 taken? 0
Updating branch ip: ffffb32ddb30 with type: 3
btb_btbDbasic_btb_update_btb ip: ffffb32ddb44 type 3 taken? 1
Updating branch ip: ffffb32ddb44 with type: 2
btb_btbDbasic_btb_update_btb ip: ffffb32dde6c type 3 taken? 1
Updating branch ip: ffffb32dde6c with type: 2
btb_btbDbasic_btb_update_btb ip: ffffb32ddf7c type 3 taken? 0
Updating branch ip: ffffb32ddf7c with type: 3
btb_btbDbasic_btb_update_btb ip: ffffb32ddf88 type 3 taken? 0
Updating branch ip: ffffb32ddf88 with type: 3
btb_btbDbasic_btb_update_btb ip: ffffb32ddf98 type 3 taken? 0
Updating branch ip: ffffb32ddf98 with type: 3
btb_btbDbasic_btb_update_btb ip: ffffb32ddfa8 type 3 taken? 0
Updating branch ip: ffffb32ddfa8 with type: 3
btb_btbDbasic_btb_update_btb ip: ffffb32ddfbc type 3 taken? 0
Updating branch ip: ffffb32ddfbc with type: 3
btb_btbDbasic_btb_update_btb ip: ffffb32ddfc8 type 3 taken? 0
Updating branch ip: ffffb32ddfc8 with type: 3
btb_btbDbasic_btb_update_btb ip: ffffb32ddfd8 type 3 taken? 0
Updating branch ip: ffffb32ddfd8 with type: 3
btb_btbDbasic_btb_update_btb ip: ffffb32ddfe8 type 3 taken? 0
Updating branch ip: ffffb32ddfe8 with type: 3
btb_btbDbasic_btb_update_btb ip: ffffb32ddff8 type 3 taken? 0
Updating branch ip: ffffb32ddff8 with type: 3
btb_btbDbasic_btb_update_btb ip: ffffb32de004 type 3 taken? 0
Updating branch ip: ffffb32de004 with type: 3
btb_btbDbasic_btb_update_btb ip: ffffb32de014 type 3 taken? 0
Updating branch ip: ffffb32de014 with type: 3
btb_btbDbasic_btb_update_btb ip: ffffb32de024 type 3 taken? 0
Updating branch ip: ffffb32de024 with type: 3
btb_btbDbasic_btb_update_btb ip: ffffb32de03c type 6 taken? 1
Updating branch ip: ffffb32de03c with type: 1
btb_btbDbasic_btb_update_btb ip: ffffb330cdd4 type 3 taken? 0
Updating branch ip: ffffb330cdd4 with type: 3
btb_btbDbasic_btb_update_btb ip: ffffb330cdf8 type 3 taken? 0
Updating branch ip: ffffb330cdf8 with type: 3
btb_btbDbasic_btb_update_btb ip: ffffb330ce00 type 4 taken? 1
Updating branch ip: ffffb330ce00 with type: 2
btb_btbDbasic_btb_update_btb ip: ffffb72e8ce8 type 3 taken? 0
Updating branch ip: ffffb72e8ce8 with type: 3
btb_btbDbasic_btb_update_btb ip: ffffb72e8cf4 type 5 taken? 1
Updating branch ip: ffffb72e8cf4 with type: 0
btb_btbDbasic_btb_update_btb ip: ffffb7e24700 type 3 taken? 0
Updating branch ip: ffffb7e24700 with type: 3
btb_btbDbasic_btb_update_btb ip: ffffb7e24708 type 5 taken? 1
Updating branch ip: ffffb7e24708 with type: 0
btb_btbDbasic_btb_update_btb ip: ffffb7fd03a4 type 3 taken? 0
Updating branch ip: ffffb7fd03a4 with type: 3
btb_btbDbasic_btb_update_btb ip: ffffb7fd03b4 type 2 taken? 1
Updating branch ip: ffffb7fd03b4 with type: 0
btb_btbDbasic_btb_update_btb ip: ffffb7fd03c4 type 1 taken? 1
Updating branch ip: ffffb7fd03c4 with type: 2
btb_btbDbasic_btb_update_btb ip: ffffb7fd0464 type 3 taken? 0
Updating branch ip: ffffb7fd0464 with type: 3
btb_btbDbasic_btb_update_btb ip: ffffb7fd0470 type 3 taken? 0
Updating branch ip: ffffb7fd0470 with type: 3
btb_btbDbasic_btb_update_btb ip: ffffb7fd0490 type 3 taken? 0
Updating branch ip: ffffb7fd0490 with type: 3
btb_btbDbasic_btb_update_btb ip: ffffb7fd04d8 type 3 taken? 0
Updating branch ip: ffffb7fd04d8 with type: 3
btb_btbDbasic_btb_update_btb ip: ffffb7fd04e8 type 3 taken? 1
Updating branch ip: ffffb7fd04e8 with type: 2
btb_btbDbasic_btb_update_btb ip: ffffb7fd0500 type 6 taken? 1
Updating branch ip: ffffb7fd0500 with type: 1
btb_btbDbasic_btb_update_btb ip: ffffb7e24714 type 3 taken? 1
Updating branch ip: ffffb7e24714 with type: 2
btb_btbDbasic_btb_update_btb ip: ffffb7e24740 type 6 taken? 1
Updating branch ip: ffffb7e24740 with type: 1
btb_btbDbasic_btb_update_btb ip: ffffb72e8d14 type 6 taken? 1
Updating branch ip: ffffb72e8d14 with type: 1
btb_btbDbasic_btb_update_btb ip: ffffb330ce0c type 4 taken? 1
Updating branch ip: ffffb330ce0c with type: 2
btb_btbDbasic_btb_update_btb ip: ffffb3380674 type 3 taken? 1
Updating branch ip: ffffb3380674 with type: 2
btb_btbDbasic_btb_update_btb ip: ffffb33806c0 type 3 taken? 0
Updating branch ip: ffffb33806c0 with type: 3
btb_btbDbasic_btb_update_btb ip: ffffb33806dc type 3 taken? 0
Updating branch ip: ffffb33806dc with type: 3
btb_btbDbasic_btb_update_btb ip: ffffb33806e8 type 3 taken? 0
Updating branch ip: ffffb33806e8 with type: 3
btb_btbDbasic_btb_update_btb ip: ffffb3380700 type 6 taken? 1
Updating branch ip: ffffb3380700 with type: 1
btb_btbDbasic_btb_update_btb ip: ffffb330ce10 type 4 taken? 1
Updating branch ip: ffffb330ce10 with type: 2
btb_btbDbasic_btb_update_btb ip: ffffb72e8ce8 type 3 taken? 0
Updating branch ip: ffffb72e8ce8 with type: 3
btb_btbDbasic_btb_update_btb ip: ffffb72e8cf4 type 5 taken? 1
Updating branch ip: ffffb72e8cf4 with type: 0
btb_btbDbasic_btb_update_btb ip: ffffb7e24700 type 3 taken? 0
Updating branch ip: ffffb7e24700 with type: 3
btb_btbDbasic_btb_update_btb ip: ffffb7e24708 type 5 taken? 1
Updating branch ip: ffffb7e24708 with type: 0
btb_btbDbasic_btb_update_btb ip: ffffb7fd03a4 type 3 taken? 0
Updating branch ip: ffffb7fd03a4 with type: 3
btb_btbDbasic_btb_update_btb ip: ffffb7fd03b4 type 2 taken? 1
Updating branch ip: ffffb7fd03b4 with type: 0
btb_btbDbasic_btb_update_btb ip: ffffb7fd03c4 type 1 taken? 1
Updating branch ip: ffffb7fd03c4 with type: 2
btb_btbDbasic_btb_update_btb ip: ffffb7fd0464 type 3 taken? 0
Updating branch ip: ffffb7fd0464 with type: 3
btb_btbDbasic_btb_update_btb ip: ffffb7fd0470 type 3 taken? 0
Updating branch ip: ffffb7fd0470 with type: 3
btb_btbDbasic_btb_update_btb ip: ffffb7fd0490 type 3 taken? 0
Updating branch ip: ffffb7fd0490 with type: 3
btb_btbDbasic_btb_update_btb ip: ffffb7fd04d8 type 3 taken? 0
Updating branch ip: ffffb7fd04d8 with type: 3
btb_btbDbasic_btb_update_btb ip: ffffb7fd04e8 type 3 taken? 1
Updating branch ip: ffffb7fd04e8 with type: 2
btb_btbDbasic_btb_update_btb ip: ffffb7fd0500 type 6 taken? 1
Updating branch ip: ffffb7fd0500 with type: 1
btb_btbDbasic_btb_update_btb ip: ffffb7e24714 type 3 taken? 1
Updating branch ip: ffffb7e24714 with type: 2
btb_btbDbasic_btb_update_btb ip: ffffb7e24740 type 6 taken? 1
Updating branch ip: ffffb7e24740 with type: 1
btb_btbDbasic_btb_update_btb ip: ffffb72e8d14 type 6 taken? 1
Updating branch ip: ffffb72e8d14 with type: 1
btb_btbDbasic_btb_update_btb ip: ffffb330ce30 type 3 taken? 0
Updating branch ip: ffffb330ce30 with type: 3
btb_btbDbasic_btb_update_btb ip: ffffb330ce40 type 4 taken? 1
Updating branch ip: ffffb330ce40 with type: 2
btb_btbDbasic_btb_update_btb ip: ffffb30a96e8 type 4 taken? 1
Updating branch ip: ffffb30a96e8 with type: 2
btb_btbDbasic_btb_update_btb ip: ffffb72e8ce8 type 3 taken? 0
Updating branch ip: ffffb72e8ce8 with type: 3
btb_btbDbasic_btb_update_btb ip: ffffb72e8cf4 type 5 taken? 1
Updating branch ip: ffffb72e8cf4 with type: 0
btb_btbDbasic_btb_update_btb ip: ffffb7e24700 type 3 taken? 0
Updating branch ip: ffffb7e24700 with type: 3
btb_btbDbasic_btb_update_btb ip: ffffb7e24708 type 5 taken? 1
Updating branch ip: ffffb7e24708 with type: 0
btb_btbDbasic_btb_update_btb ip: ffffb7fd03a4 type 3 taken? 0
Updating branch ip: ffffb7fd03a4 with type: 3
btb_btbDbasic_btb_update_btb ip: ffffb7fd03b4 type 2 taken? 1
Updating branch ip: ffffb7fd03b4 with type: 0
btb_btbDbasic_btb_update_btb ip: ffffb7fd03c4 type 1 taken? 1
Updating branch ip: ffffb7fd03c4 with type: 2
btb_btbDbasic_btb_update_btb ip: ffffb7fd0464 type 3 taken? 0
Updating branch ip: ffffb7fd0464 with type: 3
btb_btbDbasic_btb_update_btb ip: ffffb7fd0470 type 3 taken? 0
Updating branch ip: ffffb7fd0470 with type: 3
btb_btbDbasic_btb_update_btb ip: ffffb7fd0490 type 3 taken? 0
Updating branch ip: ffffb7fd0490 with type: 3
btb_btbDbasic_btb_update_btb ip: ffffb7fd04d8 type 3 taken? 0
Updating branch ip: ffffb7fd04d8 with type: 3
btb_btbDbasic_btb_update_btb ip: ffffb7fd04e8 type 3 taken? 1
Updating branch ip: ffffb7fd04e8 with type: 2
btb_btbDbasic_btb_update_btb ip: ffffb7fd0500 type 6 taken? 1
Updating branch ip: ffffb7fd0500 with type: 1
btb_btbDbasic_btb_update_btb ip: ffffb7e24714 type 3 taken? 1
Updating branch ip: ffffb7e24714 with type: 2
btb_btbDbasic_btb_update_btb ip: ffffb7e24740 type 6 taken? 1
Updating branch ip: ffffb7e24740 with type: 1
btb_btbDbasic_btb_update_btb ip: ffffb72e8d14 type 6 taken? 1
Updating branch ip: ffffb72e8d14 with type: 1
btb_btbDbasic_btb_update_btb ip: ffffb30a9714 type 3 taken? 0
Updating branch ip: ffffb30a9714 with type: 3
btb_btbDbasic_btb_update_btb ip: ffffb30a9724 type 3 taken? 0
Updating branch ip: ffffb30a9724 with type: 3
btb_btbDbasic_btb_update_btb ip: ffffb30a9738 type 3 taken? 0
Updating branch ip: ffffb30a9738 with type: 3
btb_btbDbasic_btb_update_btb ip: ffffb30a9740 type 3 taken? 0
Updating branch ip: ffffb30a9740 with type: 3
btb_btbDbasic_btb_update_btb ip: ffffb30a9754 type 3 taken? 0
Updating branch ip: ffffb30a9754 with type: 3
btb_btbDbasic_btb_update_btb ip: ffffb30a9760 type 3 taken? 0
Updating branch ip: ffffb30a9760 with type: 3
btb_btbDbasic_btb_update_btb ip: ffffb30a9774 type 3 taken? 0
Updating branch ip: ffffb30a9774 with type: 3
btb_btbDbasic_btb_update_btb ip: ffffb30a9784 type 3 taken? 1
Updating branch ip: ffffb30a9784 with type: 2
btb_btbDbasic_btb_update_btb ip: ffffb30a9948 type 6 taken? 1
Updating branch ip: ffffb30a9948 with type: 1
btb_btbDbasic_btb_update_btb ip: ffffb330ce64 type 3 taken? 0
Updating branch ip: ffffb330ce64 with type: 3
btb_btbDbasic_btb_update_btb ip: ffffb330ce78 type 3 taken? 0
Updating branch ip: ffffb330ce78 with type: 3
btb_btbDbasic_btb_update_btb ip: ffffb330cea8 type 3 taken? 0
Updating branch ip: ffffb330cea8 with type: 3
btb_btbDbasic_btb_update_btb ip: ffffb330ceb8 type 3 taken? 0
Updating branch ip: ffffb330ceb8 with type: 3
btb_btbDbasic_btb_update_btb ip: ffffb330cec8 type 1 taken? 1
Updating branch ip: ffffb330cec8 with type: 2
btb_btbDbasic_btb_update_btb ip: ffffb330cf50 type 3 taken? 0
Updating branch ip: ffffb330cf50 with type: 3
btb_btbDbasic_btb_update_btb ip: ffffb330cf54 type 3 taken? 1
Updating branch ip: ffffb330cf54 with type: 2
btb_btbDbasic_btb_update_btb ip: ffffb330cbfc type 3 taken? 0
Updating branch ip: ffffb330cbfc with type: 3
btb_btbDbasic_btb_update_btb ip: ffffb330cc10 type 3 taken? 0
Updating branch ip: ffffb330cc10 with type: 3
btb_btbDbasic_btb_update_btb ip: ffffb330cc48 type 3 taken? 0
Updating branch ip: ffffb330cc48 with type: 3
btb_btbDbasic_btb_update_btb ip: ffffb330cca4 type 3 taken? 0
Updating branch ip: ffffb330cca4 with type: 3
btb_btbDbasic_btb_update_btb ip: ffffb330ccb8 type 3 taken? 0
Updating branch ip: ffffb330ccb8 with type: 3
btb_btbDbasic_btb_update_btb ip: ffffb330cce4 type 3 taken? 0
Updating branch ip: ffffb330cce4 with type: 3
btb_btbDbasic_btb_update_btb ip: ffffb330cd00 type 3 taken? 0
Updating branch ip: ffffb330cd00 with type: 3
btb_btbDbasic_btb_update_btb ip: ffffb330cd04 type 3 taken? 0
Updating branch ip: ffffb330cd04 with type: 3
btb_btbDbasic_btb_update_btb ip: ffffb330cd10 type 3 taken? 1
Updating branch ip: ffffb330cd10 with type: 2
btb_btbDbasic_btb_update_btb ip: ffffb330cda0 type 3 taken? 0
Updating branch ip: ffffb330cda0 with type: 3
btb_btbDbasic_btb_update_btb ip: ffffb330cda8 type 3 taken? 0
Updating branch ip: ffffb330cda8 with type: 3
btb_btbDbasic_btb_update_btb ip: ffffb330cdb4 type 3 taken? 0
Updating branch ip: ffffb330cdb4 with type: 3
btb_btbDbasic_btb_update_btb ip: ffffb330cdbc type 4 taken? 1
Updating branch ip: ffffb330cdbc with type: 2
btb_btbDbasic_btb_update_btb ip: ffffb32dd34c type 4 taken? 1
Updating branch ip: ffffb32dd34c with type: 2
btb_btbDbasic_btb_update_btb ip: ffffb72e8ce8 type 3 taken? 0
Updating branch ip: ffffb72e8ce8 with type: 3
btb_btbDbasic_btb_update_btb ip: ffffb72e8cf4 type 5 taken? 1
Updating branch ip: ffffb72e8cf4 with type: 0
btb_btbDbasic_btb_update_btb ip: ffffb7e24700 type 3 taken? 0
Updating branch ip: ffffb7e24700 with type: 3
btb_btbDbasic_btb_update_btb ip: ffffb7e24708 type 5 taken? 1
Updating branch ip: ffffb7e24708 with type: 0
btb_btbDbasic_btb_update_btb ip: ffffb7fd03a4 type 3 taken? 0
Updating branch ip: ffffb7fd03a4 with type: 3
btb_btbDbasic_btb_update_btb ip: ffffb7fd03b4 type 2 taken? 1
Updating branch ip: ffffb7fd03b4 with type: 0
btb_btbDbasic_btb_update_btb ip: ffffb7fd03c4 type 1 taken? 1
Updating branch ip: ffffb7fd03c4 with type: 2
btb_btbDbasic_btb_update_btb ip: ffffb7fd0464 type 3 taken? 0
Updating branch ip: ffffb7fd0464 with type: 3
btb_btbDbasic_btb_update_btb ip: ffffb7fd0470 type 3 taken? 0
Updating branch ip: ffffb7fd0470 with type: 3
btb_btbDbasic_btb_update_btb ip: ffffb7fd0490 type 3 taken? 0
Updating branch ip: ffffb7fd0490 with type: 3
btb_btbDbasic_btb_update_btb ip: ffffb7fd04d8 type 3 taken? 0
Updating branch ip: ffffb7fd04d8 with type: 3
btb_btbDbasic_btb_update_btb ip: ffffb7fd04e8 type 3 taken? 1
Updating branch ip: ffffb7fd04e8 with type: 2
btb_btbDbasic_btb_update_btb ip: ffffb7fd0500 type 6 taken? 1
Updating branch ip: ffffb7fd0500 with type: 1
btb_btbDbasic_btb_update_btb ip: ffffb7e24714 type 3 taken? 1
Updating branch ip: ffffb7e24714 with type: 2
btb_btbDbasic_btb_update_btb ip: ffffb7e24740 type 6 taken? 1
Updating branch ip: ffffb7e24740 with type: 1
Simulation finished CPU 0 instructions: 20003 cycles: 42478 cumulative IPC: 0.470903 (Simulation time: 0 hr 0 min 0 sec) 

Simulation complete CPU 0 instructions: 20003 cycles: 42478 (Simulation time: 0 hr 0 min 0 sec) 


ChampSim completed all CPUs

=== Simulation ===
CPU 0 runs /home/ssingh/champsim/ipc1_public/server_001.champsimtrace.xz

Region of Interest Statistics

CPU 0 cumulative IPC: 0.470903 instructions: 20003 cycles: 42478
CPU 0 Branch Prediction Accuracy: 94.7342% MPKI: 10.1985 Average ROB Occupancy at Mispredict: 57.0736
Branch type MPKI
BRANCH_DIRECT_JUMP: 0.549918
BRANCH_INDIRECT: 0.499926
BRANCH_CONDITIONAL: 3.64946
BRANCH_DIRECT_CALL: 1.14983
BRANCH_INDIRECT_CALL: 0.849873
BRANCH_RETURN: 3.49948

cpu0_L1I TOTAL       ACCESS:       2493  HIT:       2253  MISS:        240
cpu0_L1I LOAD         ACCESS:       2493  HIT:       2253  MISS:        240
cpu0_L1I RFO          ACCESS:          0  HIT:          0  MISS:          0
cpu0_L1I PREFETCH     ACCESS:          0  HIT:          0  MISS:          0
cpu0_L1I WRITE        ACCESS:          0  HIT:          0  MISS:          0
cpu0_L1I TRANSLATION  ACCESS:          0  HIT:          0  MISS:          0
cpu0_L1I PREFETCH  REQUESTED:          0  ISSUED:          0  USEFUL:          0  USELESS:          0
cpu0_L1I AVERAGE MISS LATENCY: 135.017 cycles
cpu0_ITLB TOTAL       ACCESS:       2313  HIT:       2268  MISS:         45
cpu0_ITLB LOAD         ACCESS:       2313  HIT:       2268  MISS:         45
cpu0_ITLB RFO          ACCESS:          0  HIT:          0  MISS:          0
cpu0_ITLB PREFETCH     ACCESS:          0  HIT:          0  MISS:          0
cpu0_ITLB WRITE        ACCESS:          0  HIT:          0  MISS:          0
cpu0_ITLB TRANSLATION  ACCESS:          0  HIT:          0  MISS:          0
cpu0_ITLB PREFETCH  REQUESTED:          0  ISSUED:          0  USEFUL:          0  USELESS:          0
cpu0_ITLB AVERAGE MISS LATENCY: 371.356 cycles
cpu0_DTLB TOTAL       ACCESS:       5395  HIT:       4746  MISS:        649
cpu0_DTLB LOAD         ACCESS:       5395  HIT:       4746  MISS:        649
cpu0_DTLB RFO          ACCESS:          0  HIT:          0  MISS:          0
cpu0_DTLB PREFETCH     ACCESS:          0  HIT:          0  MISS:          0
cpu0_DTLB WRITE        ACCESS:          0  HIT:          0  MISS:          0
cpu0_DTLB TRANSLATION  ACCESS:          0  HIT:          0  MISS:          0
cpu0_DTLB PREFETCH  REQUESTED:          0  ISSUED:          0  USEFUL:          0  USELESS:          0
cpu0_DTLB AVERAGE MISS LATENCY: 66.5671 cycles
cpu0_STLB TOTAL       ACCESS:        318  HIT:        233  MISS:         85
cpu0_STLB LOAD         ACCESS:        318  HIT:        233  MISS:         85
cpu0_STLB RFO          ACCESS:          0  HIT:          0  MISS:          0
cpu0_STLB PREFETCH     ACCESS:          0  HIT:          0  MISS:          0
cpu0_STLB WRITE        ACCESS:          0  HIT:          0  MISS:          0
cpu0_STLB TRANSLATION  ACCESS:          0  HIT:          0  MISS:          0
cpu0_STLB PREFETCH  REQUESTED:          0  ISSUED:          0  USEFUL:          0  USELESS:          0
cpu0_STLB AVERAGE MISS LATENCY: 674.671 cycles
cpu0_L1D TOTAL       ACCESS:       5727  HIT:       5381  MISS:        346
cpu0_L1D LOAD         ACCESS:       3580  HIT:       3426  MISS:        154
cpu0_L1D RFO          ACCESS:          0  HIT:          0  MISS:          0
cpu0_L1D PREFETCH     ACCESS:          0  HIT:          0  MISS:          0
cpu0_L1D WRITE        ACCESS:       2006  HIT:       1948  MISS:         58
cpu0_L1D TRANSLATION  ACCESS:        141  HIT:          7  MISS:        134
cpu0_L1D PREFETCH  REQUESTED:          0  ISSUED:          0  USEFUL:          0  USELESS:          0
cpu0_L1D AVERAGE MISS LATENCY: 158.385 cycles
cpu0_L2C TOTAL       ACCESS:        428  HIT:          0  MISS:        428
cpu0_L2C LOAD         ACCESS:        271  HIT:          0  MISS:        271
cpu0_L2C RFO          ACCESS:         23  HIT:          0  MISS:         23
cpu0_L2C PREFETCH     ACCESS:          0  HIT:          0  MISS:          0
cpu0_L2C WRITE        ACCESS:          0  HIT:          0  MISS:          0
cpu0_L2C TRANSLATION  ACCESS:        134  HIT:          0  MISS:        134
cpu0_L2C PREFETCH  REQUESTED:          0  ISSUED:          0  USEFUL:          0  USELESS:          0
cpu0_L2C AVERAGE MISS LATENCY: 193.281 cycles
LLC TOTAL       ACCESS:        428  HIT:          0  MISS:        428
LLC LOAD         ACCESS:        271  HIT:          0  MISS:        271
LLC RFO          ACCESS:         23  HIT:          0  MISS:         23
LLC PREFETCH     ACCESS:          0  HIT:          0  MISS:          0
LLC WRITE        ACCESS:          0  HIT:          0  MISS:          0
LLC TRANSLATION  ACCESS:        134  HIT:          0  MISS:        134
LLC PREFETCH  REQUESTED:          0  ISSUED:          0  USEFUL:          0  USELESS:          0
LLC AVERAGE MISS LATENCY: 173.524 cycles

DRAM Statistics
Channel 0
 RQ ROW_BUFFER_HIT:        185
  ROW_BUFFER_MISS:        243
 AVG DBUS CONGESTED CYCLE:    3.76883
 WQ ROW_BUFFER_HIT:          0
  ROW_BUFFER_MISS:          0  FULL:          0

